scratch/importTests/ACEC-COLOMA_SUB.glm
clock {
timezone PST+8PDT;
stoptime '2000-01-02 00:00:00';
starttime '2000-01-01 00:00:00';
};

#set minimum_timestep=60;
#set profiler=1;
#set relax_naming_rules=1;
module generators;
module tape;
module climate;
module residential {
implicit_enduses NONE;
};

module powerflow {
solver_method FBS;
NR_iteration_limit 50;
};

object climate {
name Climate;
interpolate QUADRATIC;
tmyfile climate.tmy2;
};

object node {
phases ABCN;
name COLOMA SUB;
bustype SWING;
nominal_voltage 2400;
};

object regulator {
configuration object regulator_configuration {
Control MANUAL;
raise_taps 16;
name Coloma Bus Regs-CONFIG;
band_center 2401;
Type A;
tap_pos_B 1;
tap_pos_C 1;
time_delay 30.0;
connect_type 1;
regulation 0.10;
CT_phase ABC;
lower_taps 16;
tap_pos_A 1;
PT_phase ABC;
band_width 50;
};
phases ABC;
from COLOMA SUB;
name Coloma Bus Regs;
to nodeCOLOMA4Coloma Bus Regs;
};

object fuse {
phases ABCN;
from nodeCOLOMA4Coloma Bus Regs;
name COLOMA4;
current_limit 9999.0 A;
to node948739COLOMA4;
};

object underground_line {
configuration object line_configuration {
spacing object line_spacing {
distance_AN 0.000000;
name 948739-LINESPACING;
distance_CN 0.000000;
distance_BN 0.000000;
distance_BC 0.500000;
distance_AB 0.500000;
distance_AC 1.000000;
};
conductor_A object underground_line_conductor {
conductor_gmr 0.008830;
conductor_resistance 1.540000;
shield_resistance 0.000000;
neutral_gmr 0.002080;
neutral_strands 6.000000;
conductor_diameter 0.292000;
name 948739-PHASEA;
outer_diameter 0.980000;
neutral_resistance 14.872000;
neutral_diameter 0.064000;
shield_gmr 0.000000;
};
conductor_B object underground_line_conductor {
conductor_gmr 0.008830;
conductor_resistance 1.540000;
shield_resistance 0.000000;
neutral_gmr 0.002080;
neutral_strands 6.000000;
conductor_diameter 0.292000;
name 948739-PHASEB;
outer_diameter 0.980000;
neutral_resistance 14.872000;
neutral_diameter 0.064000;
shield_gmr 0.000000;
};
name 948739-LINECONFIG;
conductor_C object underground_line_conductor {
conductor_gmr 0.008830;
conductor_resistance 1.540000;
shield_resistance 0.000000;
neutral_gmr 0.002080;
neutral_strands 6.000000;
conductor_diameter 0.292000;
name 948739-PHASEC;
outer_diameter 0.980000;
neutral_resistance 14.872000;
neutral_diameter 0.064000;
shield_gmr 0.000000;
};
};
phases ABC;
from node948739COLOMA4;
name 948739;
to node824694948739;
length 70;
};

object underground_line {
configuration object line_configuration {
spacing object line_spacing {
distance_AN 0.000000;
name 824694-LINESPACING;
distance_CN 0.000000;
distance_BN 0.000000;
distance_BC 0.500000;
distance_AB 0.500000;
distance_AC 1.000000;
};
conductor_A object underground_line_conductor {
conductor_gmr 0.008830;
conductor_resistance 1.540000;
shield_resistance 0.000000;
neutral_gmr 0.002080;
neutral_strands 6.000000;
conductor_diameter 0.292000;
name 824694-PHASEA;
outer_diameter 0.980000;
neutral_resistance 14.872000;
neutral_diameter 0.064000;
shield_gmr 0.000000;
};
conductor_B object underground_line_conductor {
conductor_gmr 0.008830;
conductor_resistance 1.540000;
shield_resistance 0.000000;
neutral_gmr 0.002080;
neutral_strands 6.000000;
conductor_diameter 0.292000;
name 824694-PHASEB;
outer_diameter 0.980000;
neutral_resistance 14.872000;
neutral_diameter 0.064000;
shield_gmr 0.000000;
};
name 824694-LINECONFIG;
conductor_C object underground_line_conductor {
conductor_gmr 0.008830;
conductor_resistance 1.540000;
shield_resistance 0.000000;
neutral_gmr 0.002080;
neutral_strands 6.000000;
conductor_diameter 0.292000;
name 824694-PHASEC;
outer_diameter 0.980000;
neutral_resistance 14.872000;
neutral_diameter 0.064000;
shield_gmr 0.000000;
};
};
phases ABC;
from node824694948739;
name 824694;
to nodeRCMA4-R0001x1824694;
length 70;
};

object fuse {
phases ABCN;
from nodeRCMA4-R0001x1824694;
name RCMA4-R0001x1;
current_limit 9999.0 A;
to node984636RCMA4-R0001x1;
};

object underground_line {
configuration object line_configuration {
spacing object line_spacing {
distance_AN 0.000000;
name 984636-LINESPACING;
distance_CN 0.000000;
distance_BN 0.000000;
distance_BC 0.500000;
distance_AB 0.500000;
distance_AC 1.000000;
};
conductor_A object underground_line_conductor {
conductor_gmr 0.008830;
conductor_resistance 1.540000;
shield_resistance 0.000000;
neutral_gmr 0.002080;
neutral_strands 6.000000;
conductor_diameter 0.292000;
name 984636-PHASEA;
outer_diameter 0.980000;
neutral_resistance 14.872000;
neutral_diameter 0.064000;
shield_gmr 0.000000;
};
conductor_B object underground_line_conductor {
conductor_gmr 0.008830;
conductor_resistance 1.540000;
shield_resistance 0.000000;
neutral_gmr 0.002080;
neutral_strands 6.000000;
conductor_diameter 0.292000;
name 984636-PHASEB;
outer_diameter 0.980000;
neutral_resistance 14.872000;
neutral_diameter 0.064000;
shield_gmr 0.000000;
};
name 984636-LINECONFIG;
conductor_C object underground_line_conductor {
conductor_gmr 0.008830;
conductor_resistance 1.540000;
shield_resistance 0.000000;
neutral_gmr 0.002080;
neutral_strands 6.000000;
conductor_diameter 0.292000;
name 984636-PHASEC;
outer_diameter 0.980000;
neutral_resistance 14.872000;
neutral_diameter 0.064000;
shield_gmr 0.000000;
};
};
phases ABC;
from node984636RCMA4-R0001x1;
name 984636;
to node984637984636;
length 133;
};

object underground_line {
configuration object line_configuration {
spacing object line_spacing {
distance_AN 0.000000;
name 984637-LINESPACING;
distance_CN 0.000000;
distance_BN 0.000000;
distance_BC 0.500000;
distance_AB 0.500000;
distance_AC 1.000000;
};
conductor_A object underground_line_conductor {
conductor_gmr 0.008830;
conductor_resistance 1.540000;
shield_resistance 0.000000;
neutral_gmr 0.002080;
neutral_strands 6.000000;
conductor_diameter 0.292000;
name 984637-PHASEA;
outer_diameter 0.980000;
neutral_resistance 14.872000;
neutral_diameter 0.064000;
shield_gmr 0.000000;
};
conductor_B object underground_line_conductor {
conductor_gmr 0.008830;
conductor_resistance 1.540000;
shield_resistance 0.000000;
neutral_gmr 0.002080;
neutral_strands 6.000000;
conductor_diameter 0.292000;
name 984637-PHASEB;
outer_diameter 0.980000;
neutral_resistance 14.872000;
neutral_diameter 0.064000;
shield_gmr 0.000000;
};
name 984637-LINECONFIG;
conductor_C object underground_line_conductor {
conductor_gmr 0.008830;
conductor_resistance 1.540000;
shield_resistance 0.000000;
neutral_gmr 0.002080;
neutral_strands 6.000000;
conductor_diameter 0.292000;
name 984637-PHASEC;
outer_diameter 0.980000;
neutral_resistance 14.872000;
neutral_diameter 0.064000;
shield_gmr 0.000000;
};
};
phases ABC;
from node984637984636;
name 984637;
to node984634984637;
length 10;
};

object underground_line {
configuration object line_configuration {
spacing object line_spacing {
distance_AN 0.000000;
name 984634-LINESPACING;
distance_CN 0.000000;
distance_BN 0.000000;
distance_BC 0.500000;
distance_AB 0.500000;
distance_AC 1.000000;
};
conductor_A object underground_line_conductor {
conductor_gmr 0.008830;
conductor_resistance 1.540000;
shield_resistance 0.000000;
neutral_gmr 0.002080;
neutral_strands 6.000000;
conductor_diameter 0.292000;
name 984634-PHASEA;
outer_diameter 0.980000;
neutral_resistance 14.872000;
neutral_diameter 0.064000;
shield_gmr 0.000000;
};
conductor_B object underground_line_conductor {
conductor_gmr 0.008830;
conductor_resistance 1.540000;
shield_resistance 0.000000;
neutral_gmr 0.002080;
neutral_strands 6.000000;
conductor_diameter 0.292000;
name 984634-PHASEB;
outer_diameter 0.980000;
neutral_resistance 14.872000;
neutral_diameter 0.064000;
shield_gmr 0.000000;
};
name 984634-LINECONFIG;
conductor_C object underground_line_conductor {
conductor_gmr 0.008830;
conductor_resistance 1.540000;
shield_resistance 0.000000;
neutral_gmr 0.002080;
neutral_strands 6.000000;
conductor_diameter 0.292000;
name 984634-PHASEC;
outer_diameter 0.980000;
neutral_resistance 14.872000;
neutral_diameter 0.064000;
shield_gmr 0.000000;
};
};
phases ABC;
from node984634984637;
name 984634;
to node12049x1-B984634;
length 10;
};

object underground_line {
configuration object line_configuration {
spacing object line_spacing {
distance_AN 0.000000;
name 984638-LINESPACING;
distance_CN 0.000000;
distance_BN 0.000000;
distance_BC 0.500000;
distance_AB 0.500000;
distance_AC 1.000000;
};
conductor_A object underground_line_conductor {
conductor_gmr 0.008830;
conductor_resistance 1.540000;
shield_resistance 0.000000;
neutral_gmr 0.002080;
neutral_strands 6.000000;
conductor_diameter 0.292000;
name 984638-PHASEA;
outer_diameter 0.980000;
neutral_resistance 14.872000;
neutral_diameter 0.064000;
shield_gmr 0.000000;
};
conductor_B object underground_line_conductor {
conductor_gmr 0.008830;
conductor_resistance 1.540000;
shield_resistance 0.000000;
neutral_gmr 0.002080;
neutral_strands 6.000000;
conductor_diameter 0.292000;
name 984638-PHASEB;
outer_diameter 0.980000;
neutral_resistance 14.872000;
neutral_diameter 0.064000;
shield_gmr 0.000000;
};
name 984638-LINECONFIG;
conductor_C object underground_line_conductor {
conductor_gmr 0.008830;
conductor_resistance 1.540000;
shield_resistance 0.000000;
neutral_gmr 0.002080;
neutral_strands 6.000000;
conductor_diameter 0.292000;
name 984638-PHASEC;
outer_diameter 0.980000;
neutral_resistance 14.872000;
neutral_diameter 0.064000;
shield_gmr 0.000000;
};
};
phases ABC;
from node984634984637;
name 984638;
to node984639984638;
length 10;
};

object underground_line {
configuration object line_configuration {
spacing object line_spacing {
distance_AN 0.000000;
name 984639-LINESPACING;
distance_CN 0.000000;
distance_BN 0.000000;
distance_BC 0.500000;
distance_AB 0.500000;
distance_AC 1.000000;
};
conductor_A object underground_line_conductor {
conductor_gmr 0.008830;
conductor_resistance 1.540000;
shield_resistance 0.000000;
neutral_gmr 0.002080;
neutral_strands 6.000000;
conductor_diameter 0.292000;
name 984639-PHASEA;
outer_diameter 0.980000;
neutral_resistance 14.872000;
neutral_diameter 0.064000;
shield_gmr 0.000000;
};
conductor_B object underground_line_conductor {
conductor_gmr 0.008830;
conductor_resistance 1.540000;
shield_resistance 0.000000;
neutral_gmr 0.002080;
neutral_strands 6.000000;
conductor_diameter 0.292000;
name 984639-PHASEB;
outer_diameter 0.980000;
neutral_resistance 14.872000;
neutral_diameter 0.064000;
shield_gmr 0.000000;
};
name 984639-LINECONFIG;
conductor_C object underground_line_conductor {
conductor_gmr 0.008830;
conductor_resistance 1.540000;
shield_resistance 0.000000;
neutral_gmr 0.002080;
neutral_strands 6.000000;
conductor_diameter 0.292000;
name 984639-PHASEC;
outer_diameter 0.980000;
neutral_resistance 14.872000;
neutral_diameter 0.064000;
shield_gmr 0.000000;
};
};
phases ABC;
from node984639984638;
name 984639;
to node824697984639;
length 781;
};

object underground_line {
configuration object line_configuration {
spacing object line_spacing {
distance_AN 0.000000;
name 824697-LINESPACING;
distance_CN 0.000000;
distance_BN 0.000000;
distance_BC 0.500000;
distance_AB 0.500000;
distance_AC 1.000000;
};
conductor_B object underground_line_conductor {
conductor_gmr 0.008830;
conductor_resistance 1.540000;
shield_resistance 0.000000;
neutral_gmr 0.002080;
neutral_strands 6.000000;
conductor_diameter 0.292000;
name 824697-PHASEB;
outer_diameter 0.980000;
neutral_resistance 14.872000;
neutral_diameter 0.064000;
shield_gmr 0.000000;
};
name 824697-LINECONFIG;
};
phases B;
from node824697984639;
name 824697;
to nodeT21526824697;
length 26;
};

object transformer {
configuration object transformer_configuration {
powerC_rating 50 kVA;
name T21526-CONFIG;
shunt_impedance 10000+10000j;
secondary_voltage 240.0;
connect_type SINGLE_PHASE_CENTER_TAPPED;
impedance 0.00033+0.0022j;
primary_voltage 7200.0;
powerB_rating 50 kVA;
powerA_rating 50 kVA;
};
phases BN;
from nodeT21526824697;
name T21526;
to nodeS1807-24-030T21526;
};

object load {
phases BN;
load_class R;
name S1807-24-030;
parent nodeS1807-24-030T21526;
constant_power_C 0.0;
constant_power_A 0.0;
nominal_voltage 120;
constant_power_B 2324.34;
};

object underground_line {
configuration object line_configuration {
spacing object line_spacing {
distance_AN 0.000000;
name 824700-LINESPACING;
distance_CN 0.000000;
distance_BN 0.000000;
distance_BC 0.500000;
distance_AB 0.500000;
distance_AC 1.000000;
};
conductor_A object underground_line_conductor {
conductor_gmr 0.008830;
conductor_resistance 1.540000;
shield_resistance 0.000000;
neutral_gmr 0.002080;
neutral_strands 6.000000;
conductor_diameter 0.292000;
name 824700-PHASEA;
outer_diameter 0.980000;
neutral_resistance 14.872000;
neutral_diameter 0.064000;
shield_gmr 0.000000;
};
conductor_B object underground_line_conductor {
conductor_gmr 0.008830;
conductor_resistance 1.540000;
shield_resistance 0.000000;
neutral_gmr 0.002080;
neutral_strands 6.000000;
conductor_diameter 0.292000;
name 824700-PHASEB;
outer_diameter 0.980000;
neutral_resistance 14.872000;
neutral_diameter 0.064000;
shield_gmr 0.000000;
};
name 824700-LINECONFIG;
conductor_C object underground_line_conductor {
conductor_gmr 0.008830;
conductor_resistance 1.540000;
shield_resistance 0.000000;
neutral_gmr 0.002080;
neutral_strands 6.000000;
conductor_diameter 0.292000;
name 824700-PHASEC;
outer_diameter 0.980000;
neutral_resistance 14.872000;
neutral_diameter 0.064000;
shield_gmr 0.000000;
};
};
phases ABC;
from node824697984639;
name 824700;
to node824701824700;
length 257;
};

object overhead_line {
configuration object line_configuration {
spacing object line_spacing {
distance_BC 7.0;
name 824701-LINESPACING;
distance_CN 5.0;
distance_AC 4.5;
distance_AN 4.272002;
distance_AB 2.5;
distance_BN 5.656854;
};
conductor_A object overhead_line_conductor {
resistance 0.592;
geometric_mean_radius 0.00814;
};
conductor_B object overhead_line_conductor {
resistance 0.592;
geometric_mean_radius 0.00814;
};
name 824701-LINECONFIG;
conductor_N object overhead_line_conductor {
resistance 1.12;
geometric_mean_radius 0.00446;
};
conductor_C object overhead_line_conductor {
resistance 0.592;
geometric_mean_radius 0.00814;
};
};
phases ABCN;
from node824701824700;
name 824701;
to node824702824701;
length 129;
};

object overhead_line {
configuration object line_configuration {
spacing object line_spacing {
distance_BC 7.0;
name 824702-LINESPACING;
distance_CN 5.0;
distance_AC 4.5;
distance_AN 4.272002;
distance_AB 2.5;
distance_BN 5.656854;
};
conductor_A object overhead_line_conductor {
resistance 0.592;
geometric_mean_radius 0.00814;
};
conductor_B object overhead_line_conductor {
resistance 0.592;
geometric_mean_radius 0.00814;
};
name 824702-LINECONFIG;
conductor_N object overhead_line_conductor {
resistance 1.12;
geometric_mean_radius 0.00446;
};
conductor_C object overhead_line_conductor {
resistance 0.592;
geometric_mean_radius 0.00814;
};
};
phases ABCN;
from node824702824701;
name 824702;
to node824704824702;
length 30;
};

object overhead_line {
configuration object line_configuration {
spacing object line_spacing {
distance_BC 7.0;
name 824704-LINESPACING;
distance_CN 5.0;
distance_AC 4.5;
distance_AN 4.272002;
distance_AB 2.5;
distance_BN 5.656854;
};
conductor_A object overhead_line_conductor {
resistance 0.592;
geometric_mean_radius 0.00814;
};
conductor_B object overhead_line_conductor {
resistance 0.592;
geometric_mean_radius 0.00814;
};
name 824704-LINECONFIG;
conductor_N object overhead_line_conductor {
resistance 1.12;
geometric_mean_radius 0.00446;
};
conductor_C object overhead_line_conductor {
resistance 0.592;
geometric_mean_radius 0.00814;
};
};
phases ABCN;
from node824704824702;
name 824704;
to node824705824704;
length 752;
};

object overhead_line {
configuration object line_configuration {
spacing object line_spacing {
distance_BC 7.0;
name 824705-LINESPACING;
distance_CN 5.0;
distance_AC 4.5;
distance_AN 4.272002;
distance_AB 2.5;
distance_BN 5.656854;
};
conductor_A object overhead_line_conductor {
resistance 2.57;
geometric_mean_radius 0.00437;
};
conductor_B object overhead_line_conductor {
resistance 2.57;
geometric_mean_radius 0.00437;
};
name 824705-LINECONFIG;
conductor_N object overhead_line_conductor {
resistance 2.57;
geometric_mean_radius 0.00437;
};
conductor_C object overhead_line_conductor {
resistance 2.57;
geometric_mean_radius 0.00437;
};
};
phases ABCN;
from node824705824704;
name 824705;
to node1808-19-005824705;
length 140;
};

object transformer {
configuration object transformer_configuration {
powerC_rating 50 kVA;
name 1808-19-005-CONFIG;
shunt_impedance 10000+10000j;
secondary_voltage 120.0;
connect_type WYE_WYE;
impedance 0.00033+0.0022j;
primary_voltage 7200.0;
powerB_rating 50 kVA;
powerA_rating 50 kVA;
};
phases ABCN;
from node1808-19-005824705;
name 1808-19-005;
to nodeS1808-19-0111808-19-005;
};

object load {
phases ABCN;
load_class R;
name S1808-19-011;
parent nodeS1808-19-0111808-19-005;
constant_power_C 619.876;
constant_power_A 619.876;
nominal_voltage 120;
constant_power_B 619.876;
};

object overhead_line {
configuration object line_configuration {
spacing object line_spacing {
distance_BC 7.0;
name 824707-LINESPACING;
distance_CN 5.0;
distance_AC 4.5;
distance_AN 4.272002;
distance_AB 2.5;
distance_BN 5.656854;
};
conductor_A object overhead_line_conductor {
resistance 0.592;
geometric_mean_radius 0.00814;
};
conductor_B object overhead_line_conductor {
resistance 0.592;
geometric_mean_radius 0.00814;
};
name 824707-LINECONFIG;
conductor_N object overhead_line_conductor {
resistance 1.12;
geometric_mean_radius 0.00446;
};
conductor_C object overhead_line_conductor {
resistance 0.592;
geometric_mean_radius 0.00814;
};
};
phases ABCN;
from node824705824704;
name 824707;
to node979614824707;
length 1574;
};

object underground_line {
configuration object line_configuration {
spacing object line_spacing {
distance_AN 0.000000;
name 979614-LINESPACING;
distance_CN 0.000000;
distance_BN 0.000000;
distance_BC 0.500000;
distance_AB 0.500000;
distance_AC 1.000000;
};
conductor_A object underground_line_conductor {
conductor_gmr 0.008830;
conductor_resistance 1.540000;
shield_resistance 0.000000;
neutral_gmr 0.002080;
neutral_strands 6.000000;
conductor_diameter 0.292000;
name 979614-PHASEA;
outer_diameter 0.980000;
neutral_resistance 14.872000;
neutral_diameter 0.064000;
shield_gmr 0.000000;
};
conductor_B object underground_line_conductor {
conductor_gmr 0.008830;
conductor_resistance 1.540000;
shield_resistance 0.000000;
neutral_gmr 0.002080;
neutral_strands 6.000000;
conductor_diameter 0.292000;
name 979614-PHASEB;
outer_diameter 0.980000;
neutral_resistance 14.872000;
neutral_diameter 0.064000;
shield_gmr 0.000000;
};
name 979614-LINECONFIG;
conductor_C object underground_line_conductor {
conductor_gmr 0.008830;
conductor_resistance 1.540000;
shield_resistance 0.000000;
neutral_gmr 0.002080;
neutral_strands 6.000000;
conductor_diameter 0.292000;
name 979614-PHASEC;
outer_diameter 0.980000;
neutral_resistance 14.872000;
neutral_diameter 0.064000;
shield_gmr 0.000000;
};
};
phases ABC;
from node979614824707;
name 979614;
to node979615979614;
length 20;
};

object underground_line {
configuration object line_configuration {
spacing object line_spacing {
distance_AN 0.000000;
name 979615-LINESPACING;
distance_CN 0.000000;
distance_BN 0.000000;
distance_BC 0.500000;
distance_AB 0.500000;
distance_AC 1.000000;
};
conductor_A object underground_line_conductor {
conductor_gmr 0.008830;
conductor_resistance 1.540000;
shield_resistance 0.000000;
neutral_gmr 0.002080;
neutral_strands 6.000000;
conductor_diameter 0.292000;
name 979615-PHASEA;
outer_diameter 0.980000;
neutral_resistance 14.872000;
neutral_diameter 0.064000;
shield_gmr 0.000000;
};
conductor_B object underground_line_conductor {
conductor_gmr 0.008830;
conductor_resistance 1.540000;
shield_resistance 0.000000;
neutral_gmr 0.002080;
neutral_strands 6.000000;
conductor_diameter 0.292000;
name 979615-PHASEB;
outer_diameter 0.980000;
neutral_resistance 14.872000;
neutral_diameter 0.064000;
shield_gmr 0.000000;
};
name 979615-LINECONFIG;
conductor_C object underground_line_conductor {
conductor_gmr 0.008830;
conductor_resistance 1.540000;
shield_resistance 0.000000;
neutral_gmr 0.002080;
neutral_strands 6.000000;
conductor_diameter 0.292000;
name 979615-PHASEC;
outer_diameter 0.980000;
neutral_resistance 14.872000;
neutral_diameter 0.064000;
shield_gmr 0.000000;
};
};
phases ABC;
from node979615979614;
name 979615;
to nodeT28934979615;
length 960;
};

object transformer {
configuration object transformer_configuration {
powerC_rating 50 kVA;
name T28934-CONFIG;
shunt_impedance 10000+10000j;
secondary_voltage 120.0;
connect_type WYE_WYE;
impedance 0.00033+0.0022j;
primary_voltage 7200.0;
powerB_rating 50 kVA;
powerA_rating 50 kVA;
};
phases ABCN;
from nodeT28934979615;
name T28934;
to nodeS1808-19-005T28934;
};

object load {
phases ABCN;
load_class R;
name S1808-19-005;
parent nodeS1808-19-005T28934;
constant_power_C 11595.4;
constant_power_A 11595.4;
nominal_voltage 120;
constant_power_B 11595.4;
};

object underground_line {
configuration object line_configuration {
spacing object line_spacing {
distance_AN 0.000000;
name 979617-LINESPACING;
distance_CN 0.000000;
distance_BN 0.000000;
distance_BC 0.500000;
distance_AB 0.500000;
distance_AC 1.000000;
};
conductor_A object underground_line_conductor {
conductor_gmr 0.008830;
conductor_resistance 1.540000;
shield_resistance 0.000000;
neutral_gmr 0.002080;
neutral_strands 6.000000;
conductor_diameter 0.292000;
name 979617-PHASEA;
outer_diameter 0.980000;
neutral_resistance 14.872000;
neutral_diameter 0.064000;
shield_gmr 0.000000;
};
conductor_B object underground_line_conductor {
conductor_gmr 0.008830;
conductor_resistance 1.540000;
shield_resistance 0.000000;
neutral_gmr 0.002080;
neutral_strands 6.000000;
conductor_diameter 0.292000;
name 979617-PHASEB;
outer_diameter 0.980000;
neutral_resistance 14.872000;
neutral_diameter 0.064000;
shield_gmr 0.000000;
};
name 979617-LINECONFIG;
conductor_C object underground_line_conductor {
conductor_gmr 0.008830;
conductor_resistance 1.540000;
shield_resistance 0.000000;
neutral_gmr 0.002080;
neutral_strands 6.000000;
conductor_diameter 0.292000;
name 979617-PHASEC;
outer_diameter 0.980000;
neutral_resistance 14.872000;
neutral_diameter 0.064000;
shield_gmr 0.000000;
};
};
phases ABC;
from node979615979614;
name 979617;
to nodeT28933979617;
length 140;
};

object transformer {
configuration object transformer_configuration {
powerC_rating 50 kVA;
name T28933-CONFIG;
shunt_impedance 10000+10000j;
secondary_voltage 120.0;
connect_type WYE_WYE;
impedance 0.00033+0.0022j;
primary_voltage 7200.0;
powerB_rating 50 kVA;
powerA_rating 50 kVA;
};
phases ABCN;
from nodeT28933979617;
name T28933;
to nodeS1808-19-008T28933;
};

object load {
phases ABCN;
load_class R;
name S1808-19-008;
parent nodeS1808-19-008T28933;
constant_power_C 8607.95;
constant_power_A 8607.95;
nominal_voltage 120;
constant_power_B 8607.95;
};

object load {
phases ABCN;
load_class R;
name S1808-19-009;
parent nodeS1808-19-008T28933;
constant_power_C 282.697;
constant_power_A 282.697;
nominal_voltage 120;
constant_power_B 282.697;
};

object overhead_line {
configuration object line_configuration {
spacing object line_spacing {
distance_BC 7.0;
name 979839-LINESPACING;
distance_CN 5.0;
distance_AC 4.5;
distance_AN 4.272002;
distance_AB 2.5;
distance_BN 5.656854;
};
conductor_A object overhead_line_conductor {
resistance 0.592;
geometric_mean_radius 0.00814;
};
conductor_B object overhead_line_conductor {
resistance 0.592;
geometric_mean_radius 0.00814;
};
name 979839-LINECONFIG;
conductor_N object overhead_line_conductor {
resistance 1.12;
geometric_mean_radius 0.00446;
};
conductor_C object overhead_line_conductor {
resistance 0.592;
geometric_mean_radius 0.00814;
};
};
phases ABCN;
from node979614824707;
name 979839;
to node824712979839;
length 50;
};

object underground_line {
configuration object line_configuration {
spacing object line_spacing {
distance_AN 0.000000;
name 824712-LINESPACING;
distance_CN 0.000000;
distance_BN 0.000000;
distance_BC 0.500000;
distance_AB 0.500000;
distance_AC 1.000000;
};
conductor_A object underground_line_conductor {
conductor_gmr 0.008830;
conductor_resistance 1.540000;
shield_resistance 0.000000;
neutral_gmr 0.002080;
neutral_strands 6.000000;
conductor_diameter 0.292000;
name 824712-PHASEA;
outer_diameter 0.980000;
neutral_resistance 14.872000;
neutral_diameter 0.064000;
shield_gmr 0.000000;
};
conductor_B object underground_line_conductor {
conductor_gmr 0.008830;
conductor_resistance 1.540000;
shield_resistance 0.000000;
neutral_gmr 0.002080;
neutral_strands 6.000000;
conductor_diameter 0.292000;
name 824712-PHASEB;
outer_diameter 0.980000;
neutral_resistance 14.872000;
neutral_diameter 0.064000;
shield_gmr 0.000000;
};
name 824712-LINECONFIG;
conductor_C object underground_line_conductor {
conductor_gmr 0.008830;
conductor_resistance 1.540000;
shield_resistance 0.000000;
neutral_gmr 0.002080;
neutral_strands 6.000000;
conductor_diameter 0.292000;
name 824712-PHASEC;
outer_diameter 0.980000;
neutral_resistance 14.872000;
neutral_diameter 0.064000;
shield_gmr 0.000000;
};
};
phases ABC;
from node824712979839;
name 824712;
to node824713824712;
length 1036;
};

object underground_line {
configuration object line_configuration {
spacing object line_spacing {
distance_AN 0.000000;
name 824713-LINESPACING;
distance_CN 0.000000;
distance_BN 0.000000;
distance_BC 0.500000;
distance_AB 0.500000;
distance_AC 1.000000;
};
conductor_B object underground_line_conductor {
conductor_gmr 0.008830;
conductor_resistance 1.540000;
shield_resistance 0.000000;
neutral_gmr 0.002080;
neutral_strands 6.000000;
conductor_diameter 0.292000;
name 824713-PHASEB;
outer_diameter 0.980000;
neutral_resistance 14.872000;
neutral_diameter 0.064000;
shield_gmr 0.000000;
};
name 824713-LINECONFIG;
};
phases B;
from node824713824712;
name 824713;
to node1808-19-008824713;
length 392;
};

object transformer {
configuration object transformer_configuration {
powerC_rating 50 kVA;
name 1808-19-008-CONFIG;
shunt_impedance 10000+10000j;
secondary_voltage 240.0;
connect_type SINGLE_PHASE_CENTER_TAPPED;
impedance 0.00033+0.0022j;
primary_voltage 7200.0;
powerB_rating 50 kVA;
powerA_rating 50 kVA;
};
phases BN;
from node1808-19-008824713;
name 1808-19-008;
to nodeS1808-19-0011808-19-008;
};

object load {
phases BN;
load_class R;
name S1808-19-001;
parent nodeS1808-19-0011808-19-008;
constant_power_C 0.0;
constant_power_A 0.0;
nominal_voltage 120;
constant_power_B 2032.75;
};

object underground_line {
configuration object line_configuration {
spacing object line_spacing {
distance_AN 0.000000;
name 824715-LINESPACING;
distance_CN 0.000000;
distance_BN 0.000000;
distance_BC 0.500000;
distance_AB 0.500000;
distance_AC 1.000000;
};
name 824715-LINECONFIG;
conductor_C object underground_line_conductor {
conductor_gmr 0.008830;
conductor_resistance 1.540000;
shield_resistance 0.000000;
neutral_gmr 0.002080;
neutral_strands 6.000000;
conductor_diameter 0.292000;
name 824715-PHASEC;
outer_diameter 0.980000;
neutral_resistance 14.872000;
neutral_diameter 0.064000;
shield_gmr 0.000000;
};
};
phases C;
from node824713824712;
name 824715;
to node824716824715;
length 830;
};

object underground_line {
configuration object line_configuration {
spacing object line_spacing {
distance_AN 0.000000;
name 824716-LINESPACING;
distance_CN 0.000000;
distance_BN 0.000000;
distance_BC 0.500000;
distance_AB 0.500000;
distance_AC 1.000000;
};
name 824716-LINECONFIG;
conductor_C object underground_line_conductor {
conductor_gmr 0.008830;
conductor_resistance 1.540000;
shield_resistance 0.000000;
neutral_gmr 0.002080;
neutral_strands 6.000000;
conductor_diameter 0.292000;
name 824716-PHASEC;
outer_diameter 0.980000;
neutral_resistance 14.872000;
neutral_diameter 0.064000;
shield_gmr 0.000000;
};
};
phases C;
from node824716824715;
name 824716;
to nodeR7229x1824716;
length 20;
};

object fuse {
phases CN;
from nodeR7229x1824716;
name R7229x1;
current_limit 9999.0 A;
to node920601R7229x1;
};

object overhead_line {
configuration object line_configuration {
spacing object line_spacing {
distance_BC 7.0;
name 920601-LINESPACING;
distance_CN 5.0;
distance_AC 4.5;
distance_AN 4.272002;
distance_AB 2.5;
distance_BN 5.656854;
};
name 920601-LINECONFIG;
conductor_N object overhead_line_conductor {
resistance 3.86;
geometric_mean_radius 0.00373;
};
conductor_C object overhead_line_conductor {
resistance 3.86;
geometric_mean_radius 0.00373;
};
};
phases CN;
from node920601R7229x1;
name 920601;
to node824717920601;
length 778;
};

object overhead_line {
configuration object line_configuration {
spacing object line_spacing {
distance_BC 7.0;
name 824717-LINESPACING;
distance_CN 5.0;
distance_AC 4.5;
distance_AN 4.272002;
distance_AB 2.5;
distance_BN 5.656854;
};
name 824717-LINECONFIG;
conductor_N object overhead_line_conductor {
resistance 3.86;
geometric_mean_radius 0.00373;
};
conductor_C object overhead_line_conductor {
resistance 3.86;
geometric_mean_radius 0.00373;
};
};
phases CN;
from node824717920601;
name 824717;
to node824718824717;
length 1237;
};

object overhead_line {
configuration object line_configuration {
spacing object line_spacing {
distance_BC 7.0;
name 824718-LINESPACING;
distance_CN 5.0;
distance_AC 4.5;
distance_AN 4.272002;
distance_AB 2.5;
distance_BN 5.656854;
};
name 824718-LINECONFIG;
conductor_N object overhead_line_conductor {
resistance 3.86;
geometric_mean_radius 0.00373;
};
conductor_C object overhead_line_conductor {
resistance 3.86;
geometric_mean_radius 0.00373;
};
};
phases CN;
from node824718824717;
name 824718;
to node824720824718;
length 433;
};

object overhead_line {
configuration object line_configuration {
spacing object line_spacing {
distance_BC 7.0;
name 824720-LINESPACING;
distance_CN 5.0;
distance_AC 4.5;
distance_AN 4.272002;
distance_AB 2.5;
distance_BN 5.656854;
};
name 824720-LINECONFIG;
conductor_N object overhead_line_conductor {
resistance 3.86;
geometric_mean_radius 0.00373;
};
conductor_C object overhead_line_conductor {
resistance 3.86;
geometric_mean_radius 0.00373;
};
};
phases CN;
from node824720824718;
name 824720;
to node824721824720;
length 1357;
};

object overhead_line {
configuration object line_configuration {
spacing object line_spacing {
distance_BC 7.0;
name 824721-LINESPACING;
distance_CN 5.0;
distance_AC 4.5;
distance_AN 4.272002;
distance_AB 2.5;
distance_BN 5.656854;
};
name 824721-LINECONFIG;
conductor_N object overhead_line_conductor {
resistance 3.86;
geometric_mean_radius 0.00373;
};
conductor_C object overhead_line_conductor {
resistance 3.86;
geometric_mean_radius 0.00373;
};
};
phases CN;
from node824721824720;
name 824721;
to node824722824721;
length 1076;
};

object overhead_line {
configuration object line_configuration {
spacing object line_spacing {
distance_BC 7.0;
name 824722-LINESPACING;
distance_CN 5.0;
distance_AC 4.5;
distance_AN 4.272002;
distance_AB 2.5;
distance_BN 5.656854;
};
name 824722-LINECONFIG;
conductor_N object overhead_line_conductor {
resistance 3.86;
geometric_mean_radius 0.00373;
};
conductor_C object overhead_line_conductor {
resistance 3.86;
geometric_mean_radius 0.00373;
};
};
phases CN;
from node824722824721;
name 824722;
to node824723824722;
length 1073;
};

object overhead_line {
configuration object line_configuration {
spacing object line_spacing {
distance_BC 7.0;
name 824723-LINESPACING;
distance_CN 5.0;
distance_AC 4.5;
distance_AN 4.272002;
distance_AB 2.5;
distance_BN 5.656854;
};
name 824723-LINECONFIG;
conductor_N object overhead_line_conductor {
resistance 3.86;
geometric_mean_radius 0.00373;
};
conductor_C object overhead_line_conductor {
resistance 3.86;
geometric_mean_radius 0.00373;
};
};
phases CN;
from node824723824722;
name 824723;
to node906386824723;
length 714;
};

object overhead_line {
configuration object line_configuration {
spacing object line_spacing {
distance_BC 7.0;
name 906386-LINESPACING;
distance_CN 5.0;
distance_AC 4.5;
distance_AN 4.272002;
distance_AB 2.5;
distance_BN 5.656854;
};
name 906386-LINECONFIG;
conductor_N object overhead_line_conductor {
resistance 3.86;
geometric_mean_radius 0.00373;
};
conductor_C object overhead_line_conductor {
resistance 3.86;
geometric_mean_radius 0.00373;
};
};
phases CN;
from node906386824723;
name 906386;
to node824726906386;
length 335;
};

object overhead_line {
configuration object line_configuration {
spacing object line_spacing {
distance_BC 7.0;
name 824726-LINESPACING;
distance_CN 5.0;
distance_AC 4.5;
distance_AN 4.272002;
distance_AB 2.5;
distance_BN 5.656854;
};
name 824726-LINECONFIG;
conductor_N object overhead_line_conductor {
resistance 3.86;
geometric_mean_radius 0.00373;
};
conductor_C object overhead_line_conductor {
resistance 3.86;
geometric_mean_radius 0.00373;
};
};
phases CN;
from node824726906386;
name 824726;
to node824727824726;
length 376;
};

object overhead_line {
configuration object line_configuration {
spacing object line_spacing {
distance_BC 7.0;
name 824727-LINESPACING;
distance_CN 5.0;
distance_AC 4.5;
distance_AN 4.272002;
distance_AB 2.5;
distance_BN 5.656854;
};
name 824727-LINECONFIG;
conductor_N object overhead_line_conductor {
resistance 3.86;
geometric_mean_radius 0.00373;
};
conductor_C object overhead_line_conductor {
resistance 3.86;
geometric_mean_radius 0.00373;
};
};
phases CN;
from node824727824726;
name 824727;
to node824728824727;
length 555;
};

object overhead_line {
configuration object line_configuration {
spacing object line_spacing {
distance_BC 7.0;
name 824728-LINESPACING;
distance_CN 5.0;
distance_AC 4.5;
distance_AN 4.272002;
distance_AB 2.5;
distance_BN 5.656854;
};
name 824728-LINECONFIG;
conductor_N object overhead_line_conductor {
resistance 3.86;
geometric_mean_radius 0.00373;
};
conductor_C object overhead_line_conductor {
resistance 3.86;
geometric_mean_radius 0.00373;
};
};
phases CN;
from node824728824727;
name 824728;
to node824729824728;
length 588;
};

object overhead_line {
configuration object line_configuration {
spacing object line_spacing {
distance_BC 7.0;
name 824729-LINESPACING;
distance_CN 5.0;
distance_AC 4.5;
distance_AN 4.272002;
distance_AB 2.5;
distance_BN 5.656854;
};
name 824729-LINECONFIG;
conductor_N object overhead_line_conductor {
resistance 3.86;
geometric_mean_radius 0.00373;
};
conductor_C object overhead_line_conductor {
resistance 3.86;
geometric_mean_radius 0.00373;
};
};
phases CN;
from node824729824728;
name 824729;
to node824730824729;
length 142;
};

object overhead_line {
configuration object line_configuration {
spacing object line_spacing {
distance_BC 7.0;
name 824730-LINESPACING;
distance_CN 5.0;
distance_AC 4.5;
distance_AN 4.272002;
distance_AB 2.5;
distance_BN 5.656854;
};
name 824730-LINECONFIG;
conductor_N object overhead_line_conductor {
resistance 3.86;
geometric_mean_radius 0.00373;
};
conductor_C object overhead_line_conductor {
resistance 3.86;
geometric_mean_radius 0.00373;
};
};
phases CN;
from node824730824729;
name 824730;
to node824731824730;
length 311;
};

object overhead_line {
configuration object line_configuration {
spacing object line_spacing {
distance_BC 7.0;
name 824731-LINESPACING;
distance_CN 5.0;
distance_AC 4.5;
distance_AN 4.272002;
distance_AB 2.5;
distance_BN 5.656854;
};
name 824731-LINECONFIG;
conductor_N object overhead_line_conductor {
resistance 3.86;
geometric_mean_radius 0.00373;
};
conductor_C object overhead_line_conductor {
resistance 3.86;
geometric_mean_radius 0.00373;
};
};
phases CN;
from node824731824730;
name 824731;
to node824732824731;
length 281;
};

object overhead_line {
configuration object line_configuration {
spacing object line_spacing {
distance_BC 7.0;
name 824732-LINESPACING;
distance_CN 5.0;
distance_AC 4.5;
distance_AN 4.272002;
distance_AB 2.5;
distance_BN 5.656854;
};
name 824732-LINECONFIG;
conductor_N object overhead_line_conductor {
resistance 3.86;
geometric_mean_radius 0.00373;
};
conductor_C object overhead_line_conductor {
resistance 3.86;
geometric_mean_radius 0.00373;
};
};
phases CN;
from node824732824731;
name 824732;
to node824733824732;
length 282;
};

object overhead_line {
configuration object line_configuration {
spacing object line_spacing {
distance_BC 7.0;
name 824733-LINESPACING;
distance_CN 5.0;
distance_AC 4.5;
distance_AN 4.272002;
distance_AB 2.5;
distance_BN 5.656854;
};
name 824733-LINECONFIG;
conductor_N object overhead_line_conductor {
resistance 3.86;
geometric_mean_radius 0.00373;
};
conductor_C object overhead_line_conductor {
resistance 3.86;
geometric_mean_radius 0.00373;
};
};
phases CN;
from node824733824732;
name 824733;
to node824734824733;
length 592;
};

object overhead_line {
configuration object line_configuration {
spacing object line_spacing {
distance_BC 7.0;
name 824734-LINESPACING;
distance_CN 5.0;
distance_AC 4.5;
distance_AN 4.272002;
distance_AB 2.5;
distance_BN 5.656854;
};
name 824734-LINECONFIG;
conductor_N object overhead_line_conductor {
resistance 3.86;
geometric_mean_radius 0.00373;
};
conductor_C object overhead_line_conductor {
resistance 3.86;
geometric_mean_radius 0.00373;
};
};
phases CN;
from node824734824733;
name 824734;
to node824738824734;
length 242;
};

object underground_line {
configuration object line_configuration {
spacing object line_spacing {
distance_AN 0.000000;
name 824738-LINESPACING;
distance_CN 0.000000;
distance_BN 0.000000;
distance_BC 0.500000;
distance_AB 0.500000;
distance_AC 1.000000;
};
name 824738-LINECONFIG;
conductor_C object underground_line_conductor {
conductor_gmr 0.008830;
conductor_resistance 1.540000;
shield_resistance 0.000000;
neutral_gmr 0.002080;
neutral_strands 6.000000;
conductor_diameter 0.292000;
name 824738-PHASEC;
outer_diameter 0.980000;
neutral_resistance 14.872000;
neutral_diameter 0.064000;
shield_gmr 0.000000;
};
};
phases C;
from node824738824734;
name 824738;
to nodeF7974x1824738;
length 50;
};

object fuse {
phases CN;
from nodeF7974x1824738;
name F7974x1;
current_limit 9999.0 A;
to node824739F7974x1;
};

object underground_line {
configuration object line_configuration {
spacing object line_spacing {
distance_AN 0.000000;
name 824739-LINESPACING;
distance_CN 0.000000;
distance_BN 0.000000;
distance_BC 0.500000;
distance_AB 0.500000;
distance_AC 1.000000;
};
name 824739-LINECONFIG;
conductor_C object underground_line_conductor {
conductor_gmr 0.008830;
conductor_resistance 1.540000;
shield_resistance 0.000000;
neutral_gmr 0.002080;
neutral_strands 6.000000;
conductor_diameter 0.292000;
name 824739-PHASEC;
outer_diameter 0.980000;
neutral_resistance 14.872000;
neutral_diameter 0.064000;
shield_gmr 0.000000;
};
};
phases C;
from node824739F7974x1;
name 824739;
to node824740824739;
length 1217;
};

object underground_line {
configuration object line_configuration {
spacing object line_spacing {
distance_AN 0.000000;
name 824740-LINESPACING;
distance_CN 0.000000;
distance_BN 0.000000;
distance_BC 0.500000;
distance_AB 0.500000;
distance_AC 1.000000;
};
name 824740-LINECONFIG;
conductor_C object underground_line_conductor {
conductor_gmr 0.008830;
conductor_resistance 1.540000;
shield_resistance 0.000000;
neutral_gmr 0.002080;
neutral_strands 6.000000;
conductor_diameter 0.292000;
name 824740-PHASEC;
outer_diameter 0.980000;
neutral_resistance 14.872000;
neutral_diameter 0.064000;
shield_gmr 0.000000;
};
};
phases C;
from node824740824739;
name 824740;
to node824741824740;
length 816;
};

object underground_line {
configuration object line_configuration {
spacing object line_spacing {
distance_AN 0.000000;
name 824741-LINESPACING;
distance_CN 0.000000;
distance_BN 0.000000;
distance_BC 0.500000;
distance_AB 0.500000;
distance_AC 1.000000;
};
name 824741-LINECONFIG;
conductor_C object underground_line_conductor {
conductor_gmr 0.008830;
conductor_resistance 1.540000;
shield_resistance 0.000000;
neutral_gmr 0.002080;
neutral_strands 6.000000;
conductor_diameter 0.292000;
name 824741-PHASEC;
outer_diameter 0.980000;
neutral_resistance 14.872000;
neutral_diameter 0.064000;
shield_gmr 0.000000;
};
};
phases C;
from node824741824740;
name 824741;
to node824742824741;
length 380;
};

object underground_line {
configuration object line_configuration {
spacing object line_spacing {
distance_AN 0.000000;
name 824742-LINESPACING;
distance_CN 0.000000;
distance_BN 0.000000;
distance_BC 0.500000;
distance_AB 0.500000;
distance_AC 1.000000;
};
name 824742-LINECONFIG;
conductor_C object underground_line_conductor {
conductor_gmr 0.008830;
conductor_resistance 1.540000;
shield_resistance 0.000000;
neutral_gmr 0.002080;
neutral_strands 6.000000;
conductor_diameter 0.292000;
name 824742-PHASEC;
outer_diameter 0.980000;
neutral_resistance 14.872000;
neutral_diameter 0.064000;
shield_gmr 0.000000;
};
};
phases C;
from node824742824741;
name 824742;
to nodeFCMA4-F008x1824742;
length 178;
};

object fuse {
phases CN;
from nodeFCMA4-F008x1824742;
name FCMA4-F008x1;
current_limit 9999.0 A;
to node824743FCMA4-F008x1;
};

object underground_line {
configuration object line_configuration {
spacing object line_spacing {
distance_AN 0.000000;
name 824743-LINESPACING;
distance_CN 0.000000;
distance_BN 0.000000;
distance_BC 0.500000;
distance_AB 0.500000;
distance_AC 1.000000;
};
name 824743-LINECONFIG;
conductor_C object underground_line_conductor {
conductor_gmr 0.008830;
conductor_resistance 1.540000;
shield_resistance 0.000000;
neutral_gmr 0.002080;
neutral_strands 6.000000;
conductor_diameter 0.292000;
name 824743-PHASEC;
outer_diameter 0.980000;
neutral_resistance 14.872000;
neutral_diameter 0.064000;
shield_gmr 0.000000;
};
};
phases C;
from node824743FCMA4-F008x1;
name 824743;
to node1808-0151824743;
length 699;
};

object transformer {
configuration object transformer_configuration {
powerC_rating 50 kVA;
name 1808-0151-CONFIG;
shunt_impedance 10000+10000j;
secondary_voltage 240.0;
connect_type SINGLE_PHASE_CENTER_TAPPED;
impedance 0.00033+0.0022j;
primary_voltage 7200.0;
powerB_rating 50 kVA;
powerA_rating 50 kVA;
};
phases CN;
from node1808-0151824743;
name 1808-0151;
to nodeS1808-21-0031808-0151;
};

object load {
phases CN;
load_class R;
name S1808-21-003;
parent nodeS1808-21-0031808-0151;
constant_power_C 1580.38;
constant_power_A 0.0;
nominal_voltage 120;
constant_power_B 0.0;
};

object underground_line {
configuration object line_configuration {
spacing object line_spacing {
distance_AN 0.000000;
name 824745-LINESPACING;
distance_CN 0.000000;
distance_BN 0.000000;
distance_BC 0.500000;
distance_AB 0.500000;
distance_AC 1.000000;
};
name 824745-LINECONFIG;
conductor_C object underground_line_conductor {
conductor_gmr 0.008830;
conductor_resistance 1.540000;
shield_resistance 0.000000;
neutral_gmr 0.002080;
neutral_strands 6.000000;
conductor_diameter 0.292000;
name 824745-PHASEC;
outer_diameter 0.980000;
neutral_resistance 14.872000;
neutral_diameter 0.064000;
shield_gmr 0.000000;
};
};
phases C;
from node824742824741;
name 824745;
to node1808-0164824745;
length 305;
};

object transformer {
configuration object transformer_configuration {
powerC_rating 50 kVA;
name 1808-0164-CONFIG;
shunt_impedance 10000+10000j;
secondary_voltage 240.0;
connect_type SINGLE_PHASE_CENTER_TAPPED;
impedance 0.00033+0.0022j;
primary_voltage 7200.0;
powerB_rating 50 kVA;
powerA_rating 50 kVA;
};
phases CN;
from node1808-0164824745;
name 1808-0164;
to nodeS1808-21-0011808-0164;
};

object load {
phases CN;
load_class R;
name S1808-21-001;
parent nodeS1808-21-0011808-0164;
constant_power_C 1586.21;
constant_power_A 0.0;
nominal_voltage 120;
constant_power_B 0.0;
};

object transformer {
configuration object transformer_configuration {
powerC_rating 50 kVA;
name 1808-29-006-CONFIG;
shunt_impedance 10000+10000j;
secondary_voltage 240.0;
connect_type SINGLE_PHASE_CENTER_TAPPED;
impedance 0.00033+0.0022j;
primary_voltage 7200.0;
powerB_rating 50 kVA;
powerA_rating 50 kVA;
};
phases CN;
from node824738824734;
name 1808-29-006;
to nodeS1808-29-0011808-29-006;
};

object load {
phases CN;
load_class R;
name S1808-29-001;
parent nodeS1808-29-0011808-29-006;
constant_power_C 9.16405;
constant_power_A 0.0;
nominal_voltage 120;
constant_power_B 0.0;
};

object load {
phases CN;
load_class R;
name S1808-29-004;
parent nodeS1808-29-0011808-29-006;
constant_power_C 579.835;
constant_power_A 0.0;
nominal_voltage 120;
constant_power_B 0.0;
};

object load {
phases CN;
load_class R;
name S1808-29-088;
parent nodeS1808-29-0011808-29-006;
constant_power_C 989.718;
constant_power_A 0.0;
nominal_voltage 120;
constant_power_B 0.0;
};

object underground_line {
configuration object line_configuration {
spacing object line_spacing {
distance_AN 0.000000;
name 905282-LINESPACING;
distance_CN 0.000000;
distance_BN 0.000000;
distance_BC 0.500000;
distance_AB 0.500000;
distance_AC 1.000000;
};
name 905282-LINECONFIG;
conductor_C object underground_line_conductor {
conductor_gmr 0.008830;
conductor_resistance 1.540000;
shield_resistance 0.000000;
neutral_gmr 0.002080;
neutral_strands 6.000000;
conductor_diameter 0.292000;
name 905282-PHASEC;
outer_diameter 0.980000;
neutral_resistance 14.872000;
neutral_diameter 0.064000;
shield_gmr 0.000000;
};
};
phases C;
from node824732824731;
name 905282;
to nodeF5088x1905282;
length 22;
};

object fuse {
phases CN;
from nodeF5088x1905282;
name F5088x1;
current_limit 9999.0 A;
to node905284F5088x1;
};

object underground_line {
configuration object line_configuration {
spacing object line_spacing {
distance_AN 0.000000;
name 905284-LINESPACING;
distance_CN 0.000000;
distance_BN 0.000000;
distance_BC 0.500000;
distance_AB 0.500000;
distance_AC 1.000000;
};
name 905284-LINECONFIG;
conductor_C object underground_line_conductor {
conductor_gmr 0.008830;
conductor_resistance 1.540000;
shield_resistance 0.000000;
neutral_gmr 0.002080;
neutral_strands 6.000000;
conductor_diameter 0.292000;
name 905284-PHASEC;
outer_diameter 0.980000;
neutral_resistance 14.872000;
neutral_diameter 0.064000;
shield_gmr 0.000000;
};
};
phases C;
from node905284F5088x1;
name 905284;
to nodeT5087905284;
length 432;
};

object transformer {
configuration object transformer_configuration {
powerC_rating 50 kVA;
name T5087-CONFIG;
shunt_impedance 10000+10000j;
secondary_voltage 240.0;
connect_type SINGLE_PHASE_CENTER_TAPPED;
impedance 0.00033+0.0022j;
primary_voltage 7200.0;
powerB_rating 50 kVA;
powerA_rating 50 kVA;
};
phases CN;
from nodeT5087905284;
name T5087;
to nodeS1808-29-098T5087;
};

object load {
phases CN;
load_class R;
name S1808-29-098;
parent nodeS1808-29-098T5087;
constant_power_C 736.457;
constant_power_A 0.0;
nominal_voltage 120;
constant_power_B 0.0;
};

object overhead_line {
configuration object line_configuration {
spacing object line_spacing {
distance_BC 7.0;
name 824747-LINESPACING;
distance_CN 5.0;
distance_AC 4.5;
distance_AN 4.272002;
distance_AB 2.5;
distance_BN 5.656854;
};
name 824747-LINECONFIG;
conductor_N object overhead_line_conductor {
resistance 3.86;
geometric_mean_radius 0.00373;
};
conductor_C object overhead_line_conductor {
resistance 3.86;
geometric_mean_radius 0.00373;
};
};
phases CN;
from node824731824730;
name 824747;
to node824748824747;
length 409;
};

object overhead_line {
configuration object line_configuration {
spacing object line_spacing {
distance_BC 7.0;
name 824748-LINESPACING;
distance_CN 5.0;
distance_AC 4.5;
distance_AN 4.272002;
distance_AB 2.5;
distance_BN 5.656854;
};
name 824748-LINECONFIG;
conductor_N object overhead_line_conductor {
resistance 3.86;
geometric_mean_radius 0.00373;
};
conductor_C object overhead_line_conductor {
resistance 3.86;
geometric_mean_radius 0.00373;
};
};
phases CN;
from node824748824747;
name 824748;
to node824750824748;
length 112;
};

object overhead_line {
configuration object line_configuration {
spacing object line_spacing {
distance_BC 7.0;
name 824750-LINESPACING;
distance_CN 5.0;
distance_AC 4.5;
distance_AN 4.272002;
distance_AB 2.5;
distance_BN 5.656854;
};
name 824750-LINECONFIG;
conductor_N object overhead_line_conductor {
resistance 3.86;
geometric_mean_radius 0.00373;
};
conductor_C object overhead_line_conductor {
resistance 3.86;
geometric_mean_radius 0.00373;
};
};
phases CN;
from node824750824748;
name 824750;
to node824751824750;
length 100;
};

object overhead_line {
configuration object line_configuration {
spacing object line_spacing {
distance_BC 7.0;
name 824751-LINESPACING;
distance_CN 5.0;
distance_AC 4.5;
distance_AN 4.272002;
distance_AB 2.5;
distance_BN 5.656854;
};
name 824751-LINECONFIG;
conductor_N object overhead_line_conductor {
resistance 3.86;
geometric_mean_radius 0.00373;
};
conductor_C object overhead_line_conductor {
resistance 3.86;
geometric_mean_radius 0.00373;
};
};
phases CN;
from node824751824750;
name 824751;
to node824752824751;
length 175;
};

object overhead_line {
configuration object line_configuration {
spacing object line_spacing {
distance_BC 7.0;
name 824752-LINESPACING;
distance_CN 5.0;
distance_AC 4.5;
distance_AN 4.272002;
distance_AB 2.5;
distance_BN 5.656854;
};
name 824752-LINECONFIG;
conductor_N object overhead_line_conductor {
resistance 3.86;
geometric_mean_radius 0.00373;
};
conductor_C object overhead_line_conductor {
resistance 3.86;
geometric_mean_radius 0.00373;
};
};
phases CN;
from node824752824751;
name 824752;
to node824755824752;
length 300;
};

object overhead_line {
configuration object line_configuration {
spacing object line_spacing {
distance_BC 7.0;
name 824755-LINESPACING;
distance_CN 5.0;
distance_AC 4.5;
distance_AN 4.272002;
distance_AB 2.5;
distance_BN 5.656854;
};
name 824755-LINECONFIG;
conductor_N object overhead_line_conductor {
resistance 3.86;
geometric_mean_radius 0.00373;
};
conductor_C object overhead_line_conductor {
resistance 3.86;
geometric_mean_radius 0.00373;
};
};
phases CN;
from node824755824752;
name 824755;
to node824759824755;
length 309;
};

object overhead_line {
configuration object line_configuration {
spacing object line_spacing {
distance_BC 7.0;
name 824759-LINESPACING;
distance_CN 5.0;
distance_AC 4.5;
distance_AN 4.272002;
distance_AB 2.5;
distance_BN 5.656854;
};
name 824759-LINECONFIG;
conductor_N object overhead_line_conductor {
resistance 1.65;
geometric_mean_radius 0.00504;
};
conductor_C object overhead_line_conductor {
resistance 1.65;
geometric_mean_radius 0.00504;
};
};
phases CN;
from node824759824755;
name 824759;
to node900841824759;
length 322;
};

object overhead_line {
configuration object line_configuration {
spacing object line_spacing {
distance_BC 7.0;
name 900841-LINESPACING;
distance_CN 5.0;
distance_AC 4.5;
distance_AN 4.272002;
distance_AB 2.5;
distance_BN 5.656854;
};
name 900841-LINECONFIG;
conductor_N object overhead_line_conductor {
resistance 1.65;
geometric_mean_radius 0.00504;
};
conductor_C object overhead_line_conductor {
resistance 1.65;
geometric_mean_radius 0.00504;
};
};
phases CN;
from node900841824759;
name 900841;
to node824760900841;
length 190;
};

object overhead_line {
configuration object line_configuration {
spacing object line_spacing {
distance_BC 7.0;
name 824760-LINESPACING;
distance_CN 5.0;
distance_AC 4.5;
distance_AN 4.272002;
distance_AB 2.5;
distance_BN 5.656854;
};
name 824760-LINECONFIG;
conductor_N object overhead_line_conductor {
resistance 1.65;
geometric_mean_radius 0.00504;
};
conductor_C object overhead_line_conductor {
resistance 1.65;
geometric_mean_radius 0.00504;
};
};
phases CN;
from node824760900841;
name 824760;
to node900842824760;
length 315;
};

object overhead_line {
configuration object line_configuration {
spacing object line_spacing {
distance_BC 7.0;
name 900842-LINESPACING;
distance_CN 5.0;
distance_AC 4.5;
distance_AN 4.272002;
distance_AB 2.5;
distance_BN 5.656854;
};
name 900842-LINECONFIG;
conductor_N object overhead_line_conductor {
resistance 1.65;
geometric_mean_radius 0.00504;
};
conductor_C object overhead_line_conductor {
resistance 1.65;
geometric_mean_radius 0.00504;
};
};
phases CN;
from node900842824760;
name 900842;
to node949086900842;
length 335;
};

object overhead_line {
configuration object line_configuration {
spacing object line_spacing {
distance_BC 7.0;
name 949086-LINESPACING;
distance_CN 5.0;
distance_AC 4.5;
distance_AN 4.272002;
distance_AB 2.5;
distance_BN 5.656854;
};
name 949086-LINECONFIG;
conductor_N object overhead_line_conductor {
resistance 1.65;
geometric_mean_radius 0.00504;
};
conductor_C object overhead_line_conductor {
resistance 1.65;
geometric_mean_radius 0.00504;
};
};
phases CN;
from node949086900842;
name 949086;
to node824761949086;
length 315;
};

object overhead_line {
configuration object line_configuration {
spacing object line_spacing {
distance_BC 7.0;
name 824761-LINESPACING;
distance_CN 5.0;
distance_AC 4.5;
distance_AN 4.272002;
distance_AB 2.5;
distance_BN 5.656854;
};
name 824761-LINECONFIG;
conductor_N object overhead_line_conductor {
resistance 1.12;
geometric_mean_radius 0.00446;
};
conductor_C object overhead_line_conductor {
resistance 0.592;
geometric_mean_radius 0.00814;
};
};
phases CN;
from node824761949086;
name 824761;
to node914176824761;
length 325;
};

object overhead_line {
configuration object line_configuration {
spacing object line_spacing {
distance_BC 7.0;
name 914176-LINESPACING;
distance_CN 5.0;
distance_AC 4.5;
distance_AN 4.272002;
distance_AB 2.5;
distance_BN 5.656854;
};
name 914176-LINECONFIG;
conductor_N object overhead_line_conductor {
resistance 1.12;
geometric_mean_radius 0.00446;
};
conductor_C object overhead_line_conductor {
resistance 0.592;
geometric_mean_radius 0.00814;
};
};
phases CN;
from node914176824761;
name 914176;
to node1808-29-023914176;
length 300;
};

object underground_line {
configuration object line_configuration {
spacing object line_spacing {
distance_AN 0.000000;
name 949050-LINESPACING;
distance_CN 0.000000;
distance_BN 0.000000;
distance_BC 0.500000;
distance_AB 0.500000;
distance_AC 1.000000;
};
name 949050-LINECONFIG;
conductor_C object underground_line_conductor {
conductor_gmr 0.008830;
conductor_resistance 1.540000;
shield_resistance 0.000000;
neutral_gmr 0.002080;
neutral_strands 6.000000;
conductor_diameter 0.292000;
name 949050-PHASEC;
outer_diameter 0.980000;
neutral_resistance 14.872000;
neutral_diameter 0.064000;
shield_gmr 0.000000;
};
};
phases C;
from node824761949086;
name 949050;
to node12900x1-Bx1949050;
length 659;
};

object underground_line {
configuration object line_configuration {
spacing object line_spacing {
distance_AN 0.000000;
name 824798-LINESPACING;
distance_CN 0.000000;
distance_BN 0.000000;
distance_BC 0.500000;
distance_AB 0.500000;
distance_AC 1.000000;
};
name 824798-LINECONFIG;
conductor_C object underground_line_conductor {
conductor_gmr 0.008830;
conductor_resistance 1.540000;
shield_resistance 0.000000;
neutral_gmr 0.002080;
neutral_strands 6.000000;
conductor_diameter 0.292000;
name 824798-PHASEC;
outer_diameter 0.980000;
neutral_resistance 14.872000;
neutral_diameter 0.064000;
shield_gmr 0.000000;
};
};
phases C;
from node824760900841;
name 824798;
to nodeFCMA4-F074x1824798;
length 66;
};

object fuse {
phases CN;
from nodeFCMA4-F074x1824798;
name FCMA4-F074x1;
current_limit 9999.0 A;
to node824799FCMA4-F074x1;
};

object underground_line {
configuration object line_configuration {
spacing object line_spacing {
distance_AN 0.000000;
name 824799-LINESPACING;
distance_CN 0.000000;
distance_BN 0.000000;
distance_BC 0.500000;
distance_AB 0.500000;
distance_AC 1.000000;
};
name 824799-LINECONFIG;
conductor_C object underground_line_conductor {
conductor_gmr 0.008830;
conductor_resistance 1.540000;
shield_resistance 0.000000;
neutral_gmr 0.002080;
neutral_strands 6.000000;
conductor_diameter 0.292000;
name 824799-PHASEC;
outer_diameter 0.980000;
neutral_resistance 14.872000;
neutral_diameter 0.064000;
shield_gmr 0.000000;
};
};
phases C;
from node824799FCMA4-F074x1;
name 824799;
to node824800824799;
length 58;
};

object underground_line {
configuration object line_configuration {
spacing object line_spacing {
distance_AN 0.000000;
name 824800-LINESPACING;
distance_CN 0.000000;
distance_BN 0.000000;
distance_BC 0.500000;
distance_AB 0.500000;
distance_AC 1.000000;
};
name 824800-LINECONFIG;
conductor_C object underground_line_conductor {
conductor_gmr 0.008830;
conductor_resistance 1.540000;
shield_resistance 0.000000;
neutral_gmr 0.002080;
neutral_strands 6.000000;
conductor_diameter 0.292000;
name 824800-PHASEC;
outer_diameter 0.980000;
neutral_resistance 14.872000;
neutral_diameter 0.064000;
shield_gmr 0.000000;
};
};
phases C;
from node824800824799;
name 824800;
to node824802824800;
length 587;
};

object underground_line {
configuration object line_configuration {
spacing object line_spacing {
distance_AN 0.000000;
name 824802-LINESPACING;
distance_CN 0.000000;
distance_BN 0.000000;
distance_BC 0.500000;
distance_AB 0.500000;
distance_AC 1.000000;
};
name 824802-LINECONFIG;
conductor_C object underground_line_conductor {
conductor_gmr 0.008830;
conductor_resistance 1.540000;
shield_resistance 0.000000;
neutral_gmr 0.002080;
neutral_strands 6.000000;
conductor_diameter 0.292000;
name 824802-PHASEC;
outer_diameter 0.980000;
neutral_resistance 14.872000;
neutral_diameter 0.064000;
shield_gmr 0.000000;
};
};
phases C;
from node824802824800;
name 824802;
to node1808-0088824802;
length 194;
};

object transformer {
configuration object transformer_configuration {
powerC_rating 50 kVA;
name 1808-0088-CONFIG;
shunt_impedance 10000+10000j;
secondary_voltage 240.0;
connect_type SINGLE_PHASE_CENTER_TAPPED;
impedance 0.00033+0.0022j;
primary_voltage 7200.0;
powerB_rating 50 kVA;
powerA_rating 50 kVA;
};
phases CN;
from node1808-0088824802;
name 1808-0088;
to nodeS1808-29-0751808-0088;
};

object load {
phases CN;
load_class R;
name S1808-29-075;
parent nodeS1808-29-0751808-0088;
constant_power_C 378.225;
constant_power_A 0.0;
nominal_voltage 120;
constant_power_B 0.0;
};

object transformer {
configuration object transformer_configuration {
powerC_rating 50 kVA;
name 1808-0085-CONFIG;
shunt_impedance 10000+10000j;
secondary_voltage 240.0;
connect_type SINGLE_PHASE_CENTER_TAPPED;
impedance 0.00033+0.0022j;
primary_voltage 7200.0;
powerB_rating 50 kVA;
powerA_rating 50 kVA;
};
phases CN;
from node824802824800;
name 1808-0085;
to nodeS1808-29-0731808-0085;
};

object load {
phases CN;
load_class R;
name S1808-29-073;
parent nodeS1808-29-0731808-0085;
constant_power_C 685.638;
constant_power_A 0.0;
nominal_voltage 120;
constant_power_B 0.0;
};

object transformer {
configuration object transformer_configuration {
powerC_rating 50 kVA;
name 1808-0125-CONFIG;
shunt_impedance 10000+10000j;
secondary_voltage 240.0;
connect_type SINGLE_PHASE_CENTER_TAPPED;
impedance 0.00033+0.0022j;
primary_voltage 7200.0;
powerB_rating 50 kVA;
powerA_rating 50 kVA;
};
phases CN;
from node824800824799;
name 1808-0125;
to nodeS1808-29-0811808-0125;
};

object load {
phases CN;
load_class R;
name S1808-29-081;
parent nodeS1808-29-0811808-0125;
constant_power_C 1013.88;
constant_power_A 0.0;
nominal_voltage 120;
constant_power_B 0.0;
};

object overhead_line {
configuration object line_configuration {
spacing object line_spacing {
distance_BC 7.0;
name 824805-LINESPACING;
distance_CN 5.0;
distance_AC 4.5;
distance_AN 4.272002;
distance_AB 2.5;
distance_BN 5.656854;
};
name 824805-LINECONFIG;
conductor_N object overhead_line_conductor {
resistance 3.86;
geometric_mean_radius 0.00373;
};
conductor_C object overhead_line_conductor {
resistance 3.86;
geometric_mean_radius 0.00373;
};
};
phases CN;
from node824759824755;
name 824805;
to node1808-29-032824805;
length 248;
};

object transformer {
configuration object transformer_configuration {
powerC_rating 50 kVA;
name 1808-29-032-CONFIG;
shunt_impedance 10000+10000j;
secondary_voltage 240.0;
connect_type SINGLE_PHASE_CENTER_TAPPED;
impedance 0.00033+0.0022j;
primary_voltage 7200.0;
powerB_rating 50 kVA;
powerA_rating 50 kVA;
};
phases CN;
from node1808-29-032824805;
name 1808-29-032;
to nodeS1808-29-0071808-29-032;
};

object load {
phases CN;
load_class R;
name S1808-29-007;
parent nodeS1808-29-0071808-29-032;
...