scratch/importTests/ACEC-COLOMA_SUB.VOLTS.csv
# ACEC-COLOMA_SUB.VOLTS.csv run at 2000-01-01 00:00:00 PST on 1537 nodes
node_name,voltA_real,voltA_imag,voltB_real,voltB_imag,voltC_real,voltC_imag
COLOMA SUB,2400.000000,0.000000,-1200.000000,-2078.460969,-1200.000000,2078.460969
S1807-24-030,-1.#IND00,-1.#IND00,-1.#IND00,-1.#IND00,-1.#IND00,-1.#IND00
S1808-19-011,-1.#IND00,-1.#IND00,-1.#IND00,-1.#IND00,-1.#IND00,-1.#IND00
S1808-19-005,-1.#IND00,-1.#IND00,-1.#IND00,-1.#IND00,-1.#IND00,-1.#IND00
S1808-19-008,-1.#IND00,-1.#IND00,-1.#IND00,-1.#IND00,-1.#IND00,-1.#IND00
S1808-19-009,-1.#IND00,-1.#IND00,-1.#IND00,-1.#IND00,-1.#IND00,-1.#IND00
S1808-19-001,-1.#IND00,-1.#IND00,-1.#IND00,-1.#IND00,-1.#IND00,-1.#IND00
S1808-21-003,-1.#IND00,-1.#IND00,-1.#IND00,-1.#IND00,-1.#IND00,-1.#IND00
S1808-21-001,-1.#IND00,-1.#IND00,-1.#IND00,-1.#IND00,-1.#IND00,-1.#IND00
S1808-29-001,-1.#IND00,-1.#IND00,-1.#IND00,-1.#IND00,-1.#IND00,-1.#IND00
S1808-29-004,-1.#IND00,-1.#IND00,-1.#IND00,-1.#IND00,-1.#IND00,-1.#IND00
S1808-29-088,-1.#IND00,-1.#IND00,-1.#IND00,-1.#IND00,-1.#IND00,-1.#IND00
S1808-29-098,-1.#IND00,-1.#IND00,-1.#IND00,-1.#IND00,-1.#IND00,-1.#IND00
S1808-29-075,-1.#IND00,-1.#IND00,-1.#IND00,-1.#IND00,-1.#IND00,-1.#IND00
S1808-29-073,-1.#IND00,-1.#IND00,-1.#IND00,-1.#IND00,-1.#IND00,-1.#IND00
S1808-29-081,-1.#IND00,-1.#IND00,-1.#IND00,-1.#IND00,-1.#IND00,-1.#IND00
S1808-29-007,-1.#IND00,-1.#IND00,-1.#IND00,-1.#IND00,-1.#IND00,-1.#IND00
S1808-29-089,-1.#IND00,-1.#IND00,-1.#IND00,-1.#IND00,-1.#IND00,-1.#IND00
S1808-29-003,-1.#IND00,-1.#IND00,-1.#IND00,-1.#IND00,-1.#IND00,-1.#IND00
S1808-29-006,-1.#IND00,-1.#IND00,-1.#IND00,-1.#IND00,-1.#IND00,-1.#IND00
S1808-29-008,-1.#IND00,-1.#IND00,-1.#IND00,-1.#IND00,-1.#IND00,-1.#IND00
S1808-29-092,-1.#IND00,-1.#IND00,-1.#IND00,-1.#IND00,-1.#IND00,-1.#IND00
S1808-20-006,-1.#IND00,-1.#IND00,-1.#IND00,-1.#IND00,-1.#IND00,-1.#IND00
S1808-20-009,-1.#IND00,-1.#IND00,-1.#IND00,-1.#IND00,-1.#IND00,-1.#IND00
S1808-20-008,-1.#IND00,-1.#IND00,-1.#IND00,-1.#IND00,-1.#IND00,-1.#IND00
S1808-20-004,-1.#IND00,-1.#IND00,-1.#IND00,-1.#IND00,-1.#IND00,-1.#IND00
S1808-20-007,-1.#IND00,-1.#IND00,-1.#IND00,-1.#IND00,-1.#IND00,-1.#IND00
S1808-20-002,-1.#IND00,-1.#IND00,-1.#IND00,-1.#IND00,-1.#IND00,-1.#IND00
S1808-20-001,-1.#IND00,-1.#IND00,-1.#IND00,-1.#IND00,-1.#IND00,-1.#IND00
S1808-19-004,-1.#IND00,-1.#IND00,-1.#IND00,-1.#IND00,-1.#IND00,-1.#IND00
S1808-19-012,-1.#IND00,-1.#IND00,-1.#IND00,-1.#IND00,-1.#IND00,-1.#IND00
S1808-19-010,-1.#IND00,-1.#IND00,-1.#IND00,-1.#IND00,-1.#IND00,-1.#IND00
S1808-19-003,-1.#IND00,-1.#IND00,-1.#IND00,-1.#IND00,-1.#IND00,-1.#IND00
S1808-19-006,-1.#IND00,-1.#IND00,-1.#IND00,-1.#IND00,-1.#IND00,-1.#IND00
S1808-30-004,-1.#IND00,-1.#IND00,-1.#IND00,-1.#IND00,-1.#IND00,-1.#IND00
S1808-30-006,-1.#IND00,-1.#IND00,-1.#IND00,-1.#IND00,-1.#IND00,-1.#IND00
S1807-36-005,-1.#IND00,-1.#IND00,-1.#IND00,-1.#IND00,-1.#IND00,-1.#IND00
S1807-35-005,-1.#IND00,-1.#IND00,-1.#IND00,-1.#IND00,-1.#IND00,-1.#IND00
S1807-34-011,-1.#IND00,-1.#IND00,-1.#IND00,-1.#IND00,-1.#IND00,-1.#IND00
S1807-35-004,-1.#IND00,-1.#IND00,-1.#IND00,-1.#IND00,-1.#IND00,-1.#IND00
S1807-36-001,-1.#IND00,-1.#IND00,-1.#IND00,-1.#IND00,-1.#IND00,-1.#IND00
S1807-36-010,-1.#IND00,-1.#IND00,-1.#IND00,-1.#IND00,-1.#IND00,-1.#IND00
S1807-36-008,-1.#IND00,-1.#IND00,-1.#IND00,-1.#IND00,-1.#IND00,-1.#IND00
S1807-25-003,-1.#IND00,-1.#IND00,-1.#IND00,-1.#IND00,-1.#IND00,-1.#IND00
S1807-25-015,-1.#IND00,-1.#IND00,-1.#IND00,-1.#IND00,-1.#IND00,-1.#IND00
S1807-25-002,-1.#IND00,-1.#IND00,-1.#IND00,-1.#IND00,-1.#IND00,-1.#IND00
S1808-32-005,-1.#IND00,-1.#IND00,-1.#IND00,-1.#IND00,-1.#IND00,-1.#IND00
S1808-32-006,-1.#IND00,-1.#IND00,-1.#IND00,-1.#IND00,-1.#IND00,-1.#IND00
S1808-32-074,-1.#IND00,-1.#IND00,-1.#IND00,-1.#IND00,-1.#IND00,-1.#IND00
S1808-32-076,-1.#IND00,-1.#IND00,-1.#IND00,-1.#IND00,-1.#IND00,-1.#IND00
S1808-32-003,-1.#IND00,-1.#IND00,-1.#IND00,-1.#IND00,-1.#IND00,-1.#IND00
S1808-32-008,-1.#IND00,-1.#IND00,-1.#IND00,-1.#IND00,-1.#IND00,-1.#IND00
S1808-32-017,-1.#IND00,-1.#IND00,-1.#IND00,-1.#IND00,-1.#IND00,-1.#IND00
S1808-32-004,-1.#IND00,-1.#IND00,-1.#IND00,-1.#IND00,-1.#IND00,-1.#IND00
S1808-33-005,-1.#IND00,-1.#IND00,-1.#IND00,-1.#IND00,-1.#IND00,-1.#IND00
S1808-33-004,-1.#IND00,-1.#IND00,-1.#IND00,-1.#IND00,-1.#IND00,-1.#IND00
S1808-27-011,-1.#IND00,-1.#IND00,-1.#IND00,-1.#IND00,-1.#IND00,-1.#IND00
S1808-34-004,-1.#IND00,-1.#IND00,-1.#IND00,-1.#IND00,-1.#IND00,-1.#IND00
S1808-27-006,-1.#IND00,-1.#IND00,-1.#IND00,-1.#IND00,-1.#IND00,-1.#IND00
S1808-27-009,-1.#IND00,-1.#IND00,-1.#IND00,-1.#IND00,-1.#IND00,-1.#IND00
S1808-34-003,-1.#IND00,-1.#IND00,-1.#IND00,-1.#IND00,-1.#IND00,-1.#IND00
S1808-27-010,-1.#IND00,-1.#IND00,-1.#IND00,-1.#IND00,-1.#IND00,-1.#IND00
S1808-27-005,-1.#IND00,-1.#IND00,-1.#IND00,-1.#IND00,-1.#IND00,-1.#IND00
S1808-34-001,-1.#IND00,-1.#IND00,-1.#IND00,-1.#IND00,-1.#IND00,-1.#IND00
S1808-33-008,-1.#IND00,-1.#IND00,-1.#IND00,-1.#IND00,-1.#IND00,-1.#IND00
S1808-28-003,-1.#IND00,-1.#IND00,-1.#IND00,-1.#IND00,-1.#IND00,-1.#IND00
S1808-33-003,-1.#IND00,-1.#IND00,-1.#IND00,-1.#IND00,-1.#IND00,-1.#IND00
S1808-33-012,-1.#IND00,-1.#IND00,-1.#IND00,-1.#IND00,-1.#IND00,-1.#IND00
S1808-33-009,-1.#IND00,-1.#IND00,-1.#IND00,-1.#IND00,-1.#IND00,-1.#IND00
S1808-33-007,-1.#IND00,-1.#IND00,-1.#IND00,-1.#IND00,-1.#IND00,-1.#IND00
S1808-33-010,-1.#IND00,-1.#IND00,-1.#IND00,-1.#IND00,-1.#IND00,-1.#IND00
S1808-33-011,-1.#IND00,-1.#IND00,-1.#IND00,-1.#IND00,-1.#IND00,-1.#IND00
S1808-28-004,-1.#IND00,-1.#IND00,-1.#IND00,-1.#IND00,-1.#IND00,-1.#IND00
S1808-28-001,-1.#IND00,-1.#IND00,-1.#IND00,-1.#IND00,-1.#IND00,-1.#IND00
S1808-32-015,-1.#IND00,-1.#IND00,-1.#IND00,-1.#IND00,-1.#IND00,-1.#IND00
S1808-29-094,-1.#IND00,-1.#IND00,-1.#IND00,-1.#IND00,-1.#IND00,-1.#IND00
S1808-32-070,-1.#IND00,-1.#IND00,-1.#IND00,-1.#IND00,-1.#IND00,-1.#IND00
S1808-29-082,-1.#IND00,-1.#IND00,-1.#IND00,-1.#IND00,-1.#IND00,-1.#IND00
S1808-29-086,-1.#IND00,-1.#IND00,-1.#IND00,-1.#IND00,-1.#IND00,-1.#IND00
S1808-29-085,-1.#IND00,-1.#IND00,-1.#IND00,-1.#IND00,-1.#IND00,-1.#IND00
S1808-29-093,-1.#IND00,-1.#IND00,-1.#IND00,-1.#IND00,-1.#IND00,-1.#IND00
S1808-32-009,-1.#IND00,-1.#IND00,-1.#IND00,-1.#IND00,-1.#IND00,-1.#IND00
S1808-32-011,-1.#IND00,-1.#IND00,-1.#IND00,-1.#IND00,-1.#IND00,-1.#IND00
S1808-32-016,-1.#IND00,-1.#IND00,-1.#IND00,-1.#IND00,-1.#IND00,-1.#IND00
S1808-32-075,-1.#IND00,-1.#IND00,-1.#IND00,-1.#IND00,-1.#IND00,-1.#IND00
S1808-32-073,-1.#IND00,-1.#IND00,-1.#IND00,-1.#IND00,-1.#IND00,-1.#IND00
S1808-32-013,-1.#IND00,-1.#IND00,-1.#IND00,-1.#IND00,-1.#IND00,-1.#IND00
S1808-29-077,-1.#IND00,-1.#IND00,-1.#IND00,-1.#IND00,-1.#IND00,-1.#IND00
S1808-29-100,-1.#IND00,-1.#IND00,-1.#IND00,-1.#IND00,-1.#IND00,-1.#IND00
S1808-29-096,-1.#IND00,-1.#IND00,-1.#IND00,-1.#IND00,-1.#IND00,-1.#IND00
S1808-29-080,-1.#IND00,-1.#IND00,-1.#IND00,-1.#IND00,-1.#IND00,-1.#IND00
S1808-29-099,-1.#IND00,-1.#IND00,-1.#IND00,-1.#IND00,-1.#IND00,-1.#IND00
S1808-29-091,-1.#IND00,-1.#IND00,-1.#IND00,-1.#IND00,-1.#IND00,-1.#IND00
S1808-29-097,-1.#IND00,-1.#IND00,-1.#IND00,-1.#IND00,-1.#IND00,-1.#IND00
S1808-29-017,-1.#IND00,-1.#IND00,-1.#IND00,-1.#IND00,-1.#IND00,-1.#IND00
S1808-29-016,-1.#IND00,-1.#IND00,-1.#IND00,-1.#IND00,-1.#IND00,-1.#IND00
S1808-29-015,-1.#IND00,-1.#IND00,-1.#IND00,-1.#IND00,-1.#IND00,-1.#IND00
S1808-29-068,-1.#IND00,-1.#IND00,-1.#IND00,-1.#IND00,-1.#IND00,-1.#IND00
S1808-29-070,-1.#IND00,-1.#IND00,-1.#IND00,-1.#IND00,-1.#IND00,-1.#IND00
S1808-29-035,-1.#IND00,-1.#IND00,-1.#IND00,-1.#IND00,-1.#IND00,-1.#IND00
S1808-29-079,-1.#IND00,-1.#IND00,-1.#IND00,-1.#IND00,-1.#IND00,-1.#IND00
S1808-29-084,-1.#IND00,-1.#IND00,-1.#IND00,-1.#IND00,-1.#IND00,-1.#IND00
S1808-29-087,-1.#IND00,-1.#IND00,-1.#IND00,-1.#IND00,-1.#IND00,-1.#IND00
S1808-29-101,-1.#IND00,-1.#IND00,-1.#IND00,-1.#IND00,-1.#IND00,-1.#IND00
S1808-29-074,-1.#IND00,-1.#IND00,-1.#IND00,-1.#IND00,-1.#IND00,-1.#IND00
S1808-29-076,-1.#IND00,-1.#IND00,-1.#IND00,-1.#IND00,-1.#IND00,-1.#IND00
S1808-32-078,-1.#IND00,-1.#IND00,-1.#IND00,-1.#IND00,-1.#IND00,-1.#IND00
S1808-32-014,-1.#IND00,-1.#IND00,-1.#IND00,-1.#IND00,-1.#IND00,-1.#IND00
S1808-32-012,-1.#IND00,-1.#IND00,-1.#IND00,-1.#IND00,-1.#IND00,-1.#IND00
S1808-32-069,-1.#IND00,-1.#IND00,-1.#IND00,-1.#IND00,-1.#IND00,-1.#IND00
S1808-32-026,-1.#IND00,-1.#IND00,-1.#IND00,-1.#IND00,-1.#IND00,-1.#IND00
S1808-32-022,-1.#IND00,-1.#IND00,-1.#IND00,-1.#IND00,-1.#IND00,-1.#IND00
S1808-31-066,-1.#IND00,-1.#IND00,-1.#IND00,-1.#IND00,-1.#IND00,-1.#IND00
S1808-30-061,-1.#IND00,-1.#IND00,-1.#IND00,-1.#IND00,-1.#IND00,-1.#IND00
S1808-30-064,-1.#IND00,-1.#IND00,-1.#IND00,-1.#IND00,-1.#IND00,-1.#IND00
S1808-30-065,-1.#IND00,-1.#IND00,-1.#IND00,-1.#IND00,-1.#IND00,-1.#IND00
S1808-30-060,-1.#IND00,-1.#IND00,-1.#IND00,-1.#IND00,-1.#IND00,-1.#IND00
S1707-01-009,-1.#IND00,-1.#IND00,-1.#IND00,-1.#IND00,-1.#IND00,-1.#IND00
S1707-11-003,-1.#IND00,-1.#IND00,-1.#IND00,-1.#IND00,-1.#IND00,-1.#IND00
S1707-02-013,-1.#IND00,-1.#IND00,-1.#IND00,-1.#IND00,-1.#IND00,-1.#IND00
S1707-12-010,-1.#IND00,-1.#IND00,-1.#IND00,-1.#IND00,-1.#IND00,-1.#IND00
S1707-12-009,-1.#IND00,-1.#IND00,-1.#IND00,-1.#IND00,-1.#IND00,-1.#IND00
S1707-12-003,-1.#IND00,-1.#IND00,-1.#IND00,-1.#IND00,-1.#IND00,-1.#IND00
S1707-14-013,-1.#IND00,-1.#IND00,-1.#IND00,-1.#IND00,-1.#IND00,-1.#IND00
S1707-13-010,-1.#IND00,-1.#IND00,-1.#IND00,-1.#IND00,-1.#IND00,-1.#IND00
S1707-12-008,-1.#IND00,-1.#IND00,-1.#IND00,-1.#IND00,-1.#IND00,-1.#IND00
S1707-13-002,-1.#IND00,-1.#IND00,-1.#IND00,-1.#IND00,-1.#IND00,-1.#IND00
S1707-13-013,-1.#IND00,-1.#IND00,-1.#IND00,-1.#IND00,-1.#IND00,-1.#IND00
S1707-14-017,-1.#IND00,-1.#IND00,-1.#IND00,-1.#IND00,-1.#IND00,-1.#IND00
S1707-13-001,-1.#IND00,-1.#IND00,-1.#IND00,-1.#IND00,-1.#IND00,-1.#IND00
S1707-13-014,-1.#IND00,-1.#IND00,-1.#IND00,-1.#IND00,-1.#IND00,-1.#IND00
S1707-13-017,-1.#IND00,-1.#IND00,-1.#IND00,-1.#IND00,-1.#IND00,-1.#IND00
S1707-13-019,-1.#IND00,-1.#IND00,-1.#IND00,-1.#IND00,-1.#IND00,-1.#IND00
S1707-13-020,-1.#IND00,-1.#IND00,-1.#IND00,-1.#IND00,-1.#IND00,-1.#IND00
S1707-13-015,-1.#IND00,-1.#IND00,-1.#IND00,-1.#IND00,-1.#IND00,-1.#IND00
S1707-13-008,-1.#IND00,-1.#IND00,-1.#IND00,-1.#IND00,-1.#IND00,-1.#IND00
S1707-13-011,-1.#IND00,-1.#IND00,-1.#IND00,-1.#IND00,-1.#IND00,-1.#IND00
S1707-13-018,-1.#IND00,-1.#IND00,-1.#IND00,-1.#IND00,-1.#IND00,-1.#IND00
S1707-13-016,-1.#IND00,-1.#IND00,-1.#IND00,-1.#IND00,-1.#IND00,-1.#IND00
S1707-12-001,-1.#IND00,-1.#IND00,-1.#IND00,-1.#IND00,-1.#IND00,-1.#IND00
S1707-12-002,-1.#IND00,-1.#IND00,-1.#IND00,-1.#IND00,-1.#IND00,-1.#IND00
S1707-12-007,-1.#IND00,-1.#IND00,-1.#IND00,-1.#IND00,-1.#IND00,-1.#IND00
S1707-12-004,-1.#IND00,-1.#IND00,-1.#IND00,-1.#IND00,-1.#IND00,-1.#IND00
S1707-12-006,-1.#IND00,-1.#IND00,-1.#IND00,-1.#IND00,-1.#IND00,-1.#IND00
S1707-12-005,-1.#IND00,-1.#IND00,-1.#IND00,-1.#IND00,-1.#IND00,-1.#IND00
S1707-01-005,-1.#IND00,-1.#IND00,-1.#IND00,-1.#IND00,-1.#IND00,-1.#IND00
S1707-01-012,-1.#IND00,-1.#IND00,-1.#IND00,-1.#IND00,-1.#IND00,-1.#IND00
S1708-06-005,-1.#IND00,-1.#IND00,-1.#IND00,-1.#IND00,-1.#IND00,-1.#IND00
S1708-06-006,-1.#IND00,-1.#IND00,-1.#IND00,-1.#IND00,-1.#IND00,-1.#IND00
S1708-06-011,-1.#IND00,-1.#IND00,-1.#IND00,-1.#IND00,-1.#IND00,-1.#IND00
S1708-06-013,-1.#IND00,-1.#IND00,-1.#IND00,-1.#IND00,-1.#IND00,-1.#IND00
S1708-06-003,-1.#IND00,-1.#IND00,-1.#IND00,-1.#IND00,-1.#IND00,-1.#IND00
S1708-06-008,-1.#IND00,-1.#IND00,-1.#IND00,-1.#IND00,-1.#IND00,-1.#IND00
S1707-01-007,-1.#IND00,-1.#IND00,-1.#IND00,-1.#IND00,-1.#IND00,-1.#IND00
S1707-01-006,-1.#IND00,-1.#IND00,-1.#IND00,-1.#IND00,-1.#IND00,-1.#IND00
S1808-31-001,-1.#IND00,-1.#IND00,-1.#IND00,-1.#IND00,-1.#IND00,-1.#IND00
S1708-05-008,-1.#IND00,-1.#IND00,-1.#IND00,-1.#IND00,-1.#IND00,-1.#IND00
S1708-05-002,-1.#IND00,-1.#IND00,-1.#IND00,-1.#IND00,-1.#IND00,-1.#IND00
S1708-04-001,-1.#IND00,-1.#IND00,-1.#IND00,-1.#IND00,-1.#IND00,-1.#IND00
S1708-05-004,-1.#IND00,-1.#IND00,-1.#IND00,-1.#IND00,-1.#IND00,-1.#IND00
S1708-04-003,-1.#IND00,-1.#IND00,-1.#IND00,-1.#IND00,-1.#IND00,-1.#IND00
S1708-05-009,-1.#IND00,-1.#IND00,-1.#IND00,-1.#IND00,-1.#IND00,-1.#IND00
S1708-08-009,-1.#IND00,-1.#IND00,-1.#IND00,-1.#IND00,-1.#IND00,-1.#IND00
S1708-08-005,-1.#IND00,-1.#IND00,-1.#IND00,-1.#IND00,-1.#IND00,-1.#IND00
S1708-08-010,-1.#IND00,-1.#IND00,-1.#IND00,-1.#IND00,-1.#IND00,-1.#IND00
S1708-08-011,-1.#IND00,-1.#IND00,-1.#IND00,-1.#IND00,-1.#IND00,-1.#IND00
S1708-08-001,-1.#IND00,-1.#IND00,-1.#IND00,-1.#IND00,-1.#IND00,-1.#IND00
S1708-16-001,-1.#IND00,-1.#IND00,-1.#IND00,-1.#IND00,-1.#IND00,-1.#IND00
S1708-16-024,-1.#IND00,-1.#IND00,-1.#IND00,-1.#IND00,-1.#IND00,-1.#IND00
S1708-16-012,-1.#IND00,-1.#IND00,-1.#IND00,-1.#IND00,-1.#IND00,-1.#IND00
S1708-09-033,-1.#IND00,-1.#IND00,-1.#IND00,-1.#IND00,-1.#IND00,-1.#IND00
S1708-09-005,-1.#IND00,-1.#IND00,-1.#IND00,-1.#IND00,-1.#IND00,-1.#IND00
S1708-09-029,-1.#IND00,-1.#IND00,-1.#IND00,-1.#IND00,-1.#IND00,-1.#IND00
S1708-09-002,-1.#IND00,-1.#IND00,-1.#IND00,-1.#IND00,-1.#IND00,-1.#IND00
S1708-10-006,-1.#IND00,-1.#IND00,-1.#IND00,-1.#IND00,-1.#IND00,-1.#IND00
S1708-10-009,-1.#IND00,-1.#IND00,-1.#IND00,-1.#IND00,-1.#IND00,-1.#IND00
S1708-15-007,-1.#IND00,-1.#IND00,-1.#IND00,-1.#IND00,-1.#IND00,-1.#IND00
S1708-15-001,-1.#IND00,-1.#IND00,-1.#IND00,-1.#IND00,-1.#IND00,-1.#IND00
S1708-15-003,-1.#IND00,-1.#IND00,-1.#IND00,-1.#IND00,-1.#IND00,-1.#IND00
S1708-09-020,-1.#IND00,-1.#IND00,-1.#IND00,-1.#IND00,-1.#IND00,-1.#IND00
S1708-10-002,-1.#IND00,-1.#IND00,-1.#IND00,-1.#IND00,-1.#IND00,-1.#IND00
S1708-15-004,-1.#IND00,-1.#IND00,-1.#IND00,-1.#IND00,-1.#IND00,-1.#IND00
S1708-09-030,-1.#IND00,-1.#IND00,-1.#IND00,-1.#IND00,-1.#IND00,-1.#IND00
S1708-10-007,-1.#IND00,-1.#IND00,-1.#IND00,-1.#IND00,-1.#IND00,-1.#IND00
S1708-10-003,-1.#IND00,-1.#IND00,-1.#IND00,-1.#IND00,-1.#IND00,-1.#IND00
S1708-10-008,-1.#IND00,-1.#IND00,-1.#IND00,-1.#IND00,-1.#IND00,-1.#IND00
S1708-09-007,-1.#IND00,-1.#IND00,-1.#IND00,-1.#IND00,-1.#IND00,-1.#IND00
S1708-09-012,-1.#IND00,-1.#IND00,-1.#IND00,-1.#IND00,-1.#IND00,-1.#IND00
S1708-09-019,-1.#IND00,-1.#IND00,-1.#IND00,-1.#IND00,-1.#IND00,-1.#IND00
S1708-09-023,-1.#IND00,-1.#IND00,-1.#IND00,-1.#IND00,-1.#IND00,-1.#IND00
S1708-09-008,-1.#IND00,-1.#IND00,-1.#IND00,-1.#IND00,-1.#IND00,-1.#IND00
S1708-09-032,-1.#IND00,-1.#IND00,-1.#IND00,-1.#IND00,-1.#IND00,-1.#IND00
S1708-16-007,-1.#IND00,-1.#IND00,-1.#IND00,-1.#IND00,-1.#IND00,-1.#IND00
S1708-09-011,-1.#IND00,-1.#IND00,-1.#IND00,-1.#IND00,-1.#IND00,-1.#IND00
S1708-09-022,-1.#IND00,-1.#IND00,-1.#IND00,-1.#IND00,-1.#IND00,-1.#IND00
S1708-09-031,-1.#IND00,-1.#IND00,-1.#IND00,-1.#IND00,-1.#IND00,-1.#IND00
S1708-09-003,-1.#IND00,-1.#IND00,-1.#IND00,-1.#IND00,-1.#IND00,-1.#IND00
S1708-09-004,-1.#IND00,-1.#IND00,-1.#IND00,-1.#IND00,-1.#IND00,-1.#IND00
S1708-09-006,-1.#IND00,-1.#IND00,-1.#IND00,-1.#IND00,-1.#IND00,-1.#IND00
S1708-09-009,-1.#IND00,-1.#IND00,-1.#IND00,-1.#IND00,-1.#IND00,-1.#IND00
S1708-09-010,-1.#IND00,-1.#IND00,-1.#IND00,-1.#IND00,-1.#IND00,-1.#IND00
...
nodeCOLOMA4Coloma Bus Regs,-1.#IND00,-1.#IND00,-1.#IND00,-1.#IND00,-1.#IND00,-1.#IND00
node948739COLOMA4,-1.#IND00,-1.#IND00,-1.#IND00,-1.#IND00,-1.#IND00,-1.#IND00
node824694948739,-1.#IND00,-1.#IND00,-1.#IND00,-1.#IND00,-1.#IND00,-1.#IND00
nodeRCMA4-R0001x1824694,-1.#IND00,-1.#IND00,-1.#IND00,-1.#IND00,-1.#IND00,-1.#IND00
node984636RCMA4-R0001x1,-1.#IND00,-1.#IND00,-1.#IND00,-1.#IND00,-1.#IND00,-1.#IND00
node984637984636,-1.#IND00,-1.#IND00,-1.#IND00,-1.#IND00,-1.#IND00,-1.#IND00
node984634984637,-1.#IND00,-1.#IND00,-1.#IND00,-1.#IND00,-1.#IND00,-1.#IND00
node12049x1-B984634,-1.#IND00,-1.#IND00,-1.#IND00,-1.#IND00,-1.#IND00,-1.#IND00
node984639984638,-1.#IND00,-1.#IND00,-1.#IND00,-1.#IND00,-1.#IND00,-1.#IND00
node824697984639,-1.#IND00,-1.#IND00,-1.#IND00,-1.#IND00,-1.#IND00,-1.#IND00
nodeT21526824697,0.000000,0.000000,-1.#IND00,-1.#IND00,0.000000,0.000000
nodeS1807-24-030T21526,0.000000,0.000000,-1.#IND00,-1.#IND00,0.000000,0.000000
node824701824700,-1.#IND00,-1.#IND00,-1.#IND00,-1.#IND00,-1.#IND00,-1.#IND00
node824702824701,-1.#IND00,-1.#IND00,-1.#IND00,-1.#IND00,-1.#IND00,-1.#IND00
node824704824702,-1.#IND00,-1.#IND00,-1.#IND00,-1.#IND00,-1.#IND00,-1.#IND00
node824705824704,-1.#IND00,-1.#IND00,-1.#IND00,-1.#IND00,-1.#IND00,-1.#IND00
node1808-19-005824705,-1.#IND00,-1.#IND00,-1.#IND00,-1.#IND00,-1.#IND00,-1.#IND00
nodeS1808-19-0111808-19-005,-1.#IND00,-1.#IND00,-1.#IND00,-1.#IND00,-1.#IND00,-1.#IND00
node979614824707,-1.#IND00,-1.#IND00,-1.#IND00,-1.#IND00,-1.#IND00,-1.#IND00
node979615979614,-1.#IND00,-1.#IND00,-1.#IND00,-1.#IND00,-1.#IND00,-1.#IND00
nodeT28934979615,-1.#IND00,-1.#IND00,-1.#IND00,-1.#IND00,-1.#IND00,-1.#IND00
nodeS1808-19-005T28934,-1.#IND00,-1.#IND00,-1.#IND00,-1.#IND00,-1.#IND00,-1.#IND00
nodeT28933979617,-1.#IND00,-1.#IND00,-1.#IND00,-1.#IND00,-1.#IND00,-1.#IND00
nodeS1808-19-008T28933,-1.#IND00,-1.#IND00,-1.#IND00,-1.#IND00,-1.#IND00,-1.#IND00
node824712979839,-1.#IND00,-1.#IND00,-1.#IND00,-1.#IND00,-1.#IND00,-1.#IND00
node824713824712,-1.#IND00,-1.#IND00,-1.#IND00,-1.#IND00,-1.#IND00,-1.#IND00
node1808-19-008824713,0.000000,0.000000,-1.#IND00,-1.#IND00,0.000000,0.000000
nodeS1808-19-0011808-19-008,0.000000,0.000000,-1.#IND00,-1.#IND00,0.000000,0.000000
node824716824715,0.000000,0.000000,0.000000,0.000000,-1.#IND00,-1.#IND00
nodeR7229x1824716,0.000000,0.000000,0.000000,0.000000,-1.#IND00,-1.#IND00
node920601R7229x1,0.000000,0.000000,0.000000,0.000000,-1.#IND00,-1.#IND00
node824717920601,0.000000,0.000000,0.000000,0.000000,-1.#IND00,-1.#IND00
node824718824717,0.000000,0.000000,0.000000,0.000000,-1.#IND00,-1.#IND00
node824720824718,0.000000,0.000000,0.000000,0.000000,-1.#IND00,-1.#IND00
node824721824720,0.000000,0.000000,0.000000,0.000000,-1.#IND00,-1.#IND00
node824722824721,0.000000,0.000000,0.000000,0.000000,-1.#IND00,-1.#IND00
node824723824722,0.000000,0.000000,0.000000,0.000000,-1.#IND00,-1.#IND00
node906386824723,0.000000,0.000000,0.000000,0.000000,-1.#IND00,-1.#IND00
node824726906386,0.000000,0.000000,0.000000,0.000000,-1.#IND00,-1.#IND00
node824727824726,0.000000,0.000000,0.000000,0.000000,-1.#IND00,-1.#IND00
node824728824727,0.000000,0.000000,0.000000,0.000000,-1.#IND00,-1.#IND00
node824729824728,0.000000,0.000000,0.000000,0.000000,-1.#IND00,-1.#IND00
node824730824729,0.000000,0.000000,0.000000,0.000000,-1.#IND00,-1.#IND00
node824731824730,0.000000,0.000000,0.000000,0.000000,-1.#IND00,-1.#IND00
node824732824731,0.000000,0.000000,0.000000,0.000000,-1.#IND00,-1.#IND00
node824733824732,0.000000,0.000000,0.000000,0.000000,-1.#IND00,-1.#IND00
node824734824733,0.000000,0.000000,0.000000,0.000000,-1.#IND00,-1.#IND00
node824738824734,0.000000,0.000000,0.000000,0.000000,-1.#IND00,-1.#IND00
nodeF7974x1824738,0.000000,0.000000,0.000000,0.000000,-1.#IND00,-1.#IND00
node824739F7974x1,0.000000,0.000000,0.000000,0.000000,-1.#IND00,-1.#IND00
node824740824739,0.000000,0.000000,0.000000,0.000000,-1.#IND00,-1.#IND00
node824741824740,0.000000,0.000000,0.000000,0.000000,-1.#IND00,-1.#IND00
node824742824741,0.000000,0.000000,0.000000,0.000000,-1.#IND00,-1.#IND00
nodeFCMA4-F008x1824742,0.000000,0.000000,0.000000,0.000000,-1.#IND00,-1.#IND00
node824743FCMA4-F008x1,0.000000,0.000000,0.000000,0.000000,-1.#IND00,-1.#IND00
node1808-0151824743,0.000000,0.000000,0.000000,0.000000,-1.#IND00,-1.#IND00
nodeS1808-21-0031808-0151,0.000000,0.000000,0.000000,0.000000,-1.#IND00,-1.#IND00
node1808-0164824745,0.000000,0.000000,0.000000,0.000000,-1.#IND00,-1.#IND00
nodeS1808-21-0011808-0164,0.000000,0.000000,0.000000,0.000000,-1.#IND00,-1.#IND00
nodeS1808-29-0011808-29-006,0.000000,0.000000,0.000000,0.000000,-1.#IND00,-1.#IND00
nodeF5088x1905282,0.000000,0.000000,0.000000,0.000000,-1.#IND00,-1.#IND00
node905284F5088x1,0.000000,0.000000,0.000000,0.000000,-1.#IND00,-1.#IND00
nodeT5087905284,0.000000,0.000000,0.000000,0.000000,-1.#IND00,-1.#IND00
nodeS1808-29-098T5087,0.000000,0.000000,0.000000,0.000000,-1.#IND00,-1.#IND00
node824748824747,0.000000,0.000000,0.000000,0.000000,-1.#IND00,-1.#IND00
node824750824748,0.000000,0.000000,0.000000,0.000000,-1.#IND00,-1.#IND00
node824751824750,0.000000,0.000000,0.000000,0.000000,-1.#IND00,-1.#IND00
node824752824751,0.000000,0.000000,0.000000,0.000000,-1.#IND00,-1.#IND00
node824755824752,0.000000,0.000000,0.000000,0.000000,-1.#IND00,-1.#IND00
node824759824755,0.000000,0.000000,0.000000,0.000000,-1.#IND00,-1.#IND00
node900841824759,0.000000,0.000000,0.000000,0.000000,-1.#IND00,-1.#IND00
node824760900841,0.000000,0.000000,0.000000,0.000000,-1.#IND00,-1.#IND00
node900842824760,0.000000,0.000000,0.000000,0.000000,-1.#IND00,-1.#IND00
node949086900842,0.000000,0.000000,0.000000,0.000000,-1.#IND00,-1.#IND00
node824761949086,0.000000,0.000000,0.000000,0.000000,-1.#IND00,-1.#IND00
node914176824761,0.000000,0.000000,0.000000,0.000000,-1.#IND00,-1.#IND00
node1808-29-023914176,0.000000,0.000000,0.000000,0.000000,-1.#IND00,-1.#IND00
node12900x1-Bx1949050,0.000000,0.000000,0.000000,0.000000,-1.#IND00,-1.#IND00
nodeFCMA4-F074x1824798,0.000000,0.000000,0.000000,0.000000,-1.#IND00,-1.#IND00
node824799FCMA4-F074x1,0.000000,0.000000,0.000000,0.000000,-1.#IND00,-1.#IND00
node824800824799,0.000000,0.000000,0.000000,0.000000,-1.#IND00,-1.#IND00
node824802824800,0.000000,0.000000,0.000000,0.000000,-1.#IND00,-1.#IND00
node1808-0088824802,0.000000,0.000000,0.000000,0.000000,-1.#IND00,-1.#IND00
nodeS1808-29-0751808-0088,0.000000,0.000000,0.000000,0.000000,-1.#IND00,-1.#IND00
nodeS1808-29-0731808-0085,0.000000,0.000000,0.000000,0.000000,-1.#IND00,-1.#IND00
nodeS1808-29-0811808-0125,0.000000,0.000000,0.000000,0.000000,-1.#IND00,-1.#IND00
node1808-29-032824805,0.000000,0.000000,0.000000,0.000000,-1.#IND00,-1.#IND00
nodeS1808-29-0071808-29-032,0.000000,0.000000,0.000000,0.000000,-1.#IND00,-1.#IND00
nodeFCMA4-F056x1824809,0.000000,0.000000,0.000000,0.000000,-1.#IND00,-1.#IND00
node824810FCMA4-F056x1,0.000000,0.000000,0.000000,0.000000,-1.#IND00,-1.#IND00
node1808-0144824810,0.000000,0.000000,0.000000,0.000000,-1.#IND00,-1.#IND00
nodeS1808-29-0891808-0144,0.000000,0.000000,0.000000,0.000000,-1.#IND00,-1.#IND00
nodeS1808-29-0031808-29-012,0.000000,0.000000,0.000000,0.000000,-1.#IND00,-1.#IND00
nodeS1808-29-0061808-29-002,0.000000,0.000000,0.000000,0.000000,-1.#IND00,-1.#IND00
nodeFCMA4-F107x1824814,0.000000,0.000000,0.000000,0.000000,-1.#IND00,-1.#IND00
node824815FCMA4-F107x1,0.000000,0.000000,0.000000,0.000000,-1.#IND00,-1.#IND00
node824816824815,0.000000,0.000000,0.000000,0.000000,-1.#IND00,-1.#IND00
node1808-29-034824816,0.000000,0.000000,0.000000,0.000000,-1.#IND00,-1.#IND00
nodeS1808-29-0081808-29-034,0.000000,0.000000,0.000000,0.000000,-1.#IND00,-1.#IND00
node824820824818,0.000000,0.000000,0.000000,0.000000,-1.#IND00,-1.#IND00
node1808-0150824820,0.000000,0.000000,0.000000,0.000000,-1.#IND00,-1.#IND00
nodeS1808-29-0921808-0150,0.000000,0.000000,0.000000,0.000000,-1.#IND00,-1.#IND00
nodeS1808-20-0061808-20-007,0.000000,0.000000,0.000000,0.000000,-1.#IND00,-1.#IND00
node911238911237,0.000000,0.000000,0.000000,0.000000,-1.#IND00,-1.#IND00
nodeT4114911238,0.000000,0.000000,0.000000,0.000000,-1.#IND00,-1.#IND00
nodeS1808-20-009T4114,0.000000,0.000000,0.000000,0.000000,-1.#IND00,-1.#IND00
nodeS1808-20-008T4113,0.000000,0.000000,0.000000,0.000000,-1.#IND00,-1.#IND00
nodeF18632x1824822,0.000000,0.000000,0.000000,0.000000,-1.#IND00,-1.#IND00
node824823F18632x1,0.000000,0.000000,0.000000,0.000000,-1.#IND00,-1.#IND00
node900921824823,0.000000,0.000000,0.000000,0.000000,-1.#IND00,-1.#IND00
nodeT18630900921,0.000000,0.000000,0.000000,0.000000,-1.#IND00,-1.#IND00
nodeS1808-20-004T18630,0.000000,0.000000,0.000000,0.000000,-1.#IND00,-1.#IND00
node910308910307,0.000000,0.000000,0.000000,0.000000,-1.#IND00,-1.#IND00
node1808-20-011910308,0.000000,0.000000,0.000000,0.000000,-1.#IND00,-1.#IND00
nodeS1808-20-0071808-20-011,0.000000,0.000000,0.000000,0.000000,-1.#IND00,-1.#IND00
nodeS1808-20-0021808-20-002,0.000000,0.000000,0.000000,0.000000,-1.#IND00,-1.#IND00
node1808-20-008824825,0.000000,0.000000,0.000000,0.000000,-1.#IND00,-1.#IND00
nodeS1808-20-0011808-20-008,0.000000,0.000000,0.000000,0.000000,-1.#IND00,-1.#IND00
node974368824827,-1.#IND00,-1.#IND00,-1.#IND00,-1.#IND00,-1.#IND00,-1.#IND00
nodeT29595974368,-1.#IND00,-1.#IND00,-1.#IND00,-1.#IND00,-1.#IND00,-1.#IND00
nodeS1808-19-004T29595,-1.#IND00,-1.#IND00,-1.#IND00,-1.#IND00,-1.#IND00,-1.#IND00
nodeT29596974371,-1.#IND00,-1.#IND00,-1.#IND00,-1.#IND00,-1.#IND00,-1.#IND00
nodeS1808-19-012T29596,-1.#IND00,-1.#IND00,-1.#IND00,-1.#IND00,-1.#IND00,-1.#IND00
nodeS1808-19-0101808-19-002,-1.#IND00,-1.#IND00,-1.#IND00,-1.#IND00,-1.#IND00,-1.#IND00
node1808-19-009824830,-1.#IND00,-1.#IND00,-1.#IND00,-1.#IND00,-1.#IND00,-1.#IND00
nodeS1808-19-0031808-19-009,-1.#IND00,-1.#IND00,-1.#IND00,-1.#IND00,-1.#IND00,-1.#IND00
node824834824833,-1.#IND00,-1.#IND00,-1.#IND00,-1.#IND00,-1.#IND00,-1.#IND00
node533x1-Bx1824834,-1.#IND00,-1.#IND00,-1.#IND00,-1.#IND00,-1.#IND00,-1.#IND00
node533x1-Ax1533x1-Bx1,-1.#IND00,-1.#IND00,-1.#IND00,-1.#IND00,-1.#IND00,-1.#IND00
node824835533x1-Ax1,-1.#IND00,-1.#IND00,-1.#IND00,-1.#IND00,-1.#IND00,-1.#IND00
node824836824835,-1.#IND00,-1.#IND00,-1.#IND00,-1.#IND00,-1.#IND00,-1.#IND00
node824837824836,-1.#IND00,-1.#IND00,-1.#IND00,-1.#IND00,-1.#IND00,-1.#IND00
node824838824837,-1.#IND00,-1.#IND00,-1.#IND00,-1.#IND00,-1.#IND00,-1.#IND00
nodeFCMA4-F016x1824838,-1.#IND00,-1.#IND00,-1.#IND00,-1.#IND00,-1.#IND00,-1.#IND00
node824839FCMA4-F016x1,-1.#IND00,-1.#IND00,-1.#IND00,-1.#IND00,-1.#IND00,-1.#IND00
node1808-19-010824839,-1.#IND00,-1.#IND00,-1.#IND00,-1.#IND00,-1.#IND00,-1.#IND00
nodeS1808-30-0041808-19-010,-1.#IND00,-1.#IND00,-1.#IND00,-1.#IND00,-1.#IND00,-1.#IND00
node824843824842,-1.#IND00,-1.#IND00,-1.#IND00,-1.#IND00,-1.#IND00,-1.#IND00
node824844824843,-1.#IND00,-1.#IND00,-1.#IND00,-1.#IND00,-1.#IND00,-1.#IND00
node824847824844,-1.#IND00,-1.#IND00,-1.#IND00,-1.#IND00,-1.#IND00,-1.#IND00
node824848824847,-1.#IND00,-1.#IND00,-1.#IND00,-1.#IND00,-1.#IND00,-1.#IND00
nodeR7231x1824848,0.000000,0.000000,0.000000,0.000000,-1.#IND00,-1.#IND00
node824849R7231x1,0.000000,0.000000,0.000000,0.000000,-1.#IND00,-1.#IND00
node824850824849,0.000000,0.000000,0.000000,0.000000,-1.#IND00,-1.#IND00
node1807-0244824850,0.000000,0.000000,0.000000,0.000000,-1.#IND00,-1.#IND00
nodeS1807-36-0051807-0244,0.000000,0.000000,0.000000,0.000000,-1.#IND00,-1.#IND00
node824853824852,0.000000,0.000000,0.000000,0.000000,-1.#IND00,-1.#IND00
node824855824853,0.000000,0.000000,0.000000,0.000000,-1.#IND00,-1.#IND00
node824857824855,0.000000,0.000000,0.000000,0.000000,-1.#IND00,-1.#IND00
node824858824857,0.000000,0.000000,0.000000,0.000000,-1.#IND00,-1.#IND00
node824859824858,0.000000,0.000000,0.000000,0.000000,-1.#IND00,-1.#IND00
node980396824859,0.000000,0.000000,0.000000,0.000000,-1.#IND00,-1.#IND00
node980393980396,0.000000,0.000000,0.000000,0.000000,-1.#IND00,-1.#IND00
node824860980393,0.000000,0.000000,0.000000,0.000000,-1.#IND00,-1.#IND00
node923236824860,0.000000,0.000000,0.000000,0.000000,-1.#IND00,-1.#IND00
node923237923236,0.000000,0.000000,0.000000,0.000000,-1.#IND00,-1.#IND00
node923238923237,0.000000,0.000000,0.000000,0.000000,-1.#IND00,-1.#IND00
node824862923238,0.000000,0.000000,0.000000,0.000000,-1.#IND00,-1.#IND00
node923239824862,0.000000,0.000000,0.000000,0.000000,-1.#IND00,-1.#IND00
node923240923239,0.000000,0.000000,0.000000,0.000000,-1.#IND00,-1.#IND00
node923241923240,0.000000,0.000000,0.000000,0.000000,-1.#IND00,-1.#IND00
node923242923241,0.000000,0.000000,0.000000,0.000000,-1.#IND00,-1.#IND00
nodeF7815x1923242,0.000000,0.000000,0.000000,0.000000,-1.#IND00,-1.#IND00
node922977F7815x1,0.000000,0.000000,0.000000,0.000000,-1.#IND00,-1.#IND00
node922975922977,0.000000,0.000000,0.000000,0.000000,-1.#IND00,-1.#IND00
node922976922975,0.000000,0.000000,0.000000,0.000000,-1.#IND00,-1.#IND00
nodeT12925922976,0.000000,0.000000,0.000000,0.000000,-1.#IND00,-1.#IND00
nodeS1807-35-005T12925,0.000000,0.000000,0.000000,0.000000,-1.#IND00,-1.#IND00
node922979922978,0.000000,0.000000,0.000000,0.000000,-1.#IND00,-1.#IND00
node922980922979,0.000000,0.000000,0.000000,0.000000,-1.#IND00,-1.#IND00
node1807-0304922980,0.000000,0.000000,0.000000,0.000000,-1.#IND00,-1.#IND00
node824871922981,0.000000,0.000000,0.000000,0.000000,-1.#IND00,-1.#IND00
node922983824871,0.000000,0.000000,0.000000,0.000000,-1.#IND00,-1.#IND00
node1807-0292922983,0.000000,0.000000,0.000000,0.000000,-1.#IND00,-1.#IND00
nodeS1807-34-0111807-0292,0.000000,0.000000,0.000000,0.000000,-1.#IND00,-1.#IND00
nodeS1807-35-004T12926,0.000000,0.000000,0.000000,0.000000,-1.#IND00,-1.#IND00
node980394980395,0.000000,0.000000,0.000000,0.000000,-1.#IND00,-1.#IND00
node824878980394,0.000000,0.000000,0.000000,0.000000,-1.#IND00,-1.#IND00
node1807-36-005824878,0.000000,0.000000,0.000000,0.000000,-1.#IND00,-1.#IND00
nodeS1807-36-0011807-36-005,0.000000,0.000000,0.000000,0.000000,-1.#IND00,-1.#IND00
nodeF5402x1824880,0.000000,0.000000,0.000000,0.000000,-1.#IND00,-1.#IND00
node824881F5402x1,0.000000,0.000000,0.000000,0.000000,-1.#IND00,-1.#IND00
node1807-0299824881,0.000000,0.000000,0.000000,0.000000,-1.#IND00,-1.#IND00
nodeS1807-36-0101807-0299,0.000000,0.000000,0.000000,0.000000,-1.#IND00,-1.#IND00
nodeS1807-36-0081807-36-002,0.000000,0.000000,0.000000,0.000000,-1.#IND00,-1.#IND00
node824884824883,0.000000,0.000000,0.000000,0.000000,-1.#IND00,-1.#IND00
node824885824884,0.000000,0.000000,0.000000,0.000000,-1.#IND00,-1.#IND00
node1807-25-007824885,0.000000,0.000000,0.000000,0.000000,-1.#IND00,-1.#IND00
nodeS1807-25-0031807-25-007,0.000000,0.000000,0.000000,0.000000,-1.#IND00,-1.#IND00
nodeF18666x1824887,0.000000,0.000000,0.000000,0.000000,-1.#IND00,-1.#IND00
node824888F18666x1,0.000000,0.000000,0.000000,0.000000,-1.#IND00,-1.#IND00
node824889824888,0.000000,0.000000,0.000000,0.000000,-1.#IND00,-1.#IND00
node824890824889,0.000000,0.000000,0.000000,0.000000,-1.#IND00,-1.#IND00
node950220824890,0.000000,0.000000,0.000000,0.000000,-1.#IND00,-1.#IND00
nodeT11989950220,0.000000,0.000000,0.000000,0.000000,-1.#IND00,-1.#IND00
nodeS1807-25-015T11989,0.000000,0.000000,0.000000,0.000000,-1.#IND00,-1.#IND00
nodeS1807-25-002T11988,0.000000,0.000000,0.000000,0.000000,-1.#IND00,-1.#IND00
...